@<TRIPOS>MOLECULE
gra
 4440 6556 0 0 0
SMALL
GASTEIGER

@<TRIPOS>ATOM
      1 C           0.0000    0.0000    0.0000 ca      1  GRA1        0.0000
      2 C          -1.2280    0.7090    0.0000 ca      1  GRA1        0.0000
      3 C          -1.2280    2.1270    0.0000 ca      1  GRA1        0.0000
      4 C           0.0000    2.8360    0.0000 ca      1  GRA1        0.0000
      5 C           2.4560    0.0000    0.0000 ca      1  GRA1        0.0000
      6 C           1.2280    0.7090    0.0000 ca      1  GRA1        0.0000
      7 C           1.2280    2.1270    0.0000 ca      1  GRA1        0.0000
      8 C           2.4560    2.8360    0.0000 ca      1  GRA1        0.0000
      9 C           4.9121    0.0000    0.0000 ca      1  GRA1        0.0000
     10 C           3.6841    0.7090    0.0000 ca      1  GRA1        0.0000
     11 C           3.6841    2.1270    0.0000 ca      1  GRA1        0.0000
     12 C           4.9121    2.8360    0.0000 ca      1  GRA1        0.0000
     13 C           7.3681    0.0000    0.0000 ca      1  GRA1        0.0000
     14 C           6.1401    0.7090    0.0000 ca      1  GRA1        0.0000
     15 C           6.1401    2.1270    0.0000 ca      1  GRA1        0.0000
     16 C           7.3681    2.8360    0.0000 ca      1  GRA1        0.0000
     17 C           9.8242    0.0000    0.0000 ca      1  GRA1        0.0000
     18 C           8.5962    0.7090    0.0000 ca      1  GRA1        0.0000
     19 C           8.5962    2.1270    0.0000 ca      1  GRA1        0.0000
     20 C           9.8242    2.8360    0.0000 ca      1  GRA1        0.0000
     21 C          12.2802    0.0000    0.0000 ca      1  GRA1        0.0000
     22 C          11.0522    0.7090    0.0000 ca      1  GRA1        0.0000
     23 C          11.0522    2.1270    0.0000 ca      1  GRA1        0.0000
     24 C          12.2802    2.8360    0.0000 ca      1  GRA1        0.0000
     25 C          14.7363    0.0000    0.0000 ca      1  GRA1        0.0000
     26 C          13.5083    0.7090    0.0000 ca      1  GRA1        0.0000
     27 C          13.5083    2.1270    0.0000 ca      1  GRA1        0.0000
     28 C          14.7363    2.8360    0.0000 ca      1  GRA1        0.0000
     29 C          17.1923    0.0000    0.0000 ca      1  GRA1        0.0000
     30 C          15.9643    0.7090    0.0000 ca      1  GRA1        0.0000
     31 C          15.9643    2.1270    0.0000 ca      1  GRA1        0.0000
     32 C          17.1923    2.8360    0.0000 ca      1  GRA1        0.0000
     33 C          19.6484    0.0000    0.0000 ca      1  GRA1        0.0000
     34 C          18.4204    0.7090    0.0000 ca      1  GRA1        0.0000
     35 C          18.4204    2.1270    0.0000 ca      1  GRA1        0.0000
     36 C          19.6484    2.8360    0.0000 ca      1  GRA1        0.0000
     37 C          22.1044    0.0000    0.0000 ca      1  GRA1        0.0000
     38 C          20.8764    0.7090    0.0000 ca      1  GRA1        0.0000
     39 C          20.8764    2.1270    0.0000 ca      1  GRA1        0.0000
     40 C          22.1044    2.8360    0.0000 ca      1  GRA1        0.0000
     41 C          24.5605    0.0000    0.0000 ca      1  GRA1        0.0000
     42 C          23.3325    0.7090    0.0000 ca      1  GRA1        0.0000
     43 C          23.3325    2.1270    0.0000 ca      1  GRA1        0.0000
     44 C          24.5605    2.8360    0.0000 ca      1  GRA1        0.0000
     45 C          27.0165    0.0000    0.0000 ca      1  GRA1        0.0000
     46 C          25.7885    0.7090    0.0000 ca      1  GRA1        0.0000
     47 C          25.7885    2.1270    0.0000 ca      1  GRA1        0.0000
     48 C          27.0165    2.8360    0.0000 ca      1  GRA1        0.0000
     49 C          29.4726    0.0000    0.0000 ca      1  GRA1        0.0000
     50 C          28.2446    0.7090    0.0000 ca      1  GRA1        0.0000
     51 C          28.2446    2.1270    0.0000 ca      1  GRA1        0.0000
     52 C          29.4726    2.8360    0.0000 ca      1  GRA1        0.0000
     53 C          31.9286    0.0000    0.0000 ca      1  GRA1        0.0000
     54 C          30.7006    0.7090    0.0000 ca      1  GRA1        0.0000
     55 C          30.7006    2.1270    0.0000 ca      1  GRA1        0.0000
     56 C          31.9286    2.8360    0.0000 ca      1  GRA1        0.0000
     57 C          34.3847    0.0000    0.0000 ca      1  GRA1        0.0000
     58 C          33.1566    0.7090    0.0000 ca      1  GRA1        0.0000
     59 C          33.1566    2.1270    0.0000 ca      1  GRA1        0.0000
     60 C          34.3847    2.8360    0.0000 ca      1  GRA1        0.0000
     61 C          36.8407    0.0000    0.0000 ca      1  GRA1        0.0000
     62 C          35.6127    0.7090    0.0000 ca      1  GRA1        0.0000
     63 C          35.6127    2.1270    0.0000 ca      1  GRA1        0.0000
     64 C          36.8407    2.8360    0.0000 ca      1  GRA1        0.0000
     65 C          39.2968    0.0000    0.0000 ca      1  GRA1        0.0000
     66 C          38.0687    0.7090    0.0000 ca      1  GRA1        0.0000
     67 C          38.0687    2.1270    0.0000 ca      1  GRA1        0.0000
     68 C          39.2968    2.8360    0.0000 ca      1  GRA1        0.0000
     69 C          41.7528    0.0000    0.0000 ca      1  GRA1        0.0000
     70 C          40.5248    0.7090    0.0000 ca      1  GRA1        0.0000
     71 C          40.5248    2.1270    0.0000 ca      1  GRA1        0.0000
     72 C          41.7528    2.8360    0.0000 ca      1  GRA1        0.0000
     73 C          44.2089    0.0000    0.0000 ca      1  GRA1        0.0000
     74 C          42.9808    0.7090    0.0000 ca      1  GRA1        0.0000
     75 C          42.9808    2.1270    0.0000 ca      1  GRA1        0.0000
     76 C          44.2089    2.8360    0.0000 ca      1  GRA1        0.0000
     77 C          46.6649    0.0000    0.0000 ca      1  GRA1        0.0000
     78 C          45.4369    0.7090    0.0000 ca      1  GRA1        0.0000
     79 C          45.4369    2.1270    0.0000 ca      1  GRA1        0.0000
     80 C          46.6649    2.8360    0.0000 ca      1  GRA1        0.0000
     81 C          49.1210    0.0000    0.0000 ca      1  GRA1        0.0000
     82 C          47.8929    0.7090    0.0000 ca      1  GRA1        0.0000
     83 C          47.8929    2.1270    0.0000 ca      1  GRA1        0.0000
     84 C          49.1210    2.8360    0.0000 ca      1  GRA1        0.0000
     85 C          51.5770    0.0000    0.0000 ca      1  GRA1        0.0000
     86 C          50.3490    0.7090    0.0000 ca      1  GRA1        0.0000
     87 C          50.3490    2.1270    0.0000 ca      1  GRA1        0.0000
     88 C          51.5770    2.8360    0.0000 ca      1  GRA1        0.0000
     89 C          54.0331    0.0000    0.0000 ca      1  GRA1        0.0000
     90 C          52.8050    0.7090    0.0000 ca      1  GRA1        0.0000
     91 C          52.8050    2.1270    0.0000 ca      1  GRA1        0.0000
     92 C          54.0331    2.8360    0.0000 ca      1  GRA1        0.0000
     93 C          56.4891    0.0000    0.0000 ca      1  GRA1        0.0000
     94 C          55.2611    0.7090    0.0000 ca      1  GRA1        0.0000
     95 C          55.2611    2.1270    0.0000 ca      1  GRA1        0.0000
     96 C          56.4891    2.8360    0.0000 ca      1  GRA1        0.0000
     97 C          58.9452    0.0000    0.0000 ca      1  GRA1        0.0000
     98 C          57.7171    0.7090    0.0000 ca      1  GRA1        0.0000
     99 C          57.7171    2.1270    0.0000 ca      1  GRA1        0.0000
    100 C          58.9452    2.8360    0.0000 ca      1  GRA1        0.0000
    101 C          61.4012    0.0000    0.0000 ca      1  GRA1        0.0000
    102 C          60.1732    0.7090    0.0000 ca      1  GRA1        0.0000
    103 C          60.1732    2.1270    0.0000 ca      1  GRA1        0.0000
    104 C          61.4012    2.8360    0.0000 ca      1  GRA1        0.0000
    105 C          63.8573    0.0000    0.0000 ca      1  GRA1        0.0000
    106 C          62.6292    0.7090    0.0000 ca      1  GRA1        0.0000
    107 C          62.6292    2.1270    0.0000 ca      1  GRA1        0.0000
    108 C          63.8573    2.8360    0.0000 ca      1  GRA1        0.0000
    109 C          66.3133    0.0000    0.0000 ca      1  GRA1        0.0000
    110 C          65.0853    0.7090    0.0000 ca      1  GRA1        0.0000
    111 C          65.0853    2.1270    0.0000 ca      1  GRA1        0.0000
    112 C          66.3133    2.8360    0.0000 ca      1  GRA1        0.0000
    113 C          68.7693    0.0000    0.0000 ca      1  GRA1        0.0000
    114 C          67.5413    0.7090    0.0000 ca      1  GRA1        0.0000
    115 C          67.5413    2.1270    0.0000 ca      1  GRA1        0.0000
    116 C          68.7693    2.8360    0.0000 ca      1  GRA1        0.0000
    117 C          71.2254    0.0000    0.0000 ca      1  GRA1        0.0000
    118 C          69.9974    0.7090    0.0000 ca      1  GRA1        0.0000
    119 C          69.9974    2.1270    0.0000 ca      1  GRA1        0.0000
    120 C          71.2254    2.8360    0.0000 ca      1  GRA1        0.0000
    121 C          73.6814    0.0000    0.0000 ca      1  GRA1        0.0000
    122 C          72.4534    0.7090    0.0000 ca      1  GRA1        0.0000
    123 C          72.4534    2.1270    0.0000 ca      1  GRA1        0.0000
    124 C          73.6814    2.8360    0.0000 ca      1  GRA1        0.0000
    125 C          76.1375    0.0000    0.0000 ca      1  GRA1        0.0000
    126 C          74.9095    0.7090    0.0000 ca      1  GRA1        0.0000
    127 C          74.9095    2.1270    0.0000 ca      1  GRA1        0.0000
    128 C          76.1375    2.8360    0.0000 ca      1  GRA1        0.0000
    129 C          78.5935    0.0000    0.0000 ca      1  GRA1        0.0000
    130 C          77.3655    0.7090    0.0000 ca      1  GRA1        0.0000
    131 C          77.3655    2.1270    0.0000 ca      1  GRA1        0.0000
    132 C          78.5935    2.8360    0.0000 ca      1  GRA1        0.0000
    133 C          81.0496    0.0000    0.0000 ca      1  GRA1        0.0000
    134 C          79.8216    0.7090    0.0000 ca      1  GRA1        0.0000
    135 C          79.8216    2.1270    0.0000 ca      1  GRA1        0.0000
    136 C          81.0496    2.8360    0.0000 ca      1  GRA1        0.0000
    137 C          83.5056    0.0000    0.0000 ca      1  GRA1        0.0000
    138 C          82.2776    0.7090    0.0000 ca      1  GRA1        0.0000
    139 C          82.2776    2.1270    0.0000 ca      1  GRA1        0.0000
    140 C          83.5056    2.8360    0.0000 ca      1  GRA1        0.0000
    141 C          85.9617    0.0000    0.0000 ca      1  GRA1        0.0000
    142 C          84.7337    0.7090    0.0000 ca      1  GRA1        0.0000
    143 C          84.7337    2.1270    0.0000 ca      1  GRA1        0.0000
    144 C          85.9617    2.8360    0.0000 ca      1  GRA1        0.0000
    145 C          88.4177    0.0000    0.0000 ca      1  GRA1        0.0000
    146 C          87.1897    0.7090    0.0000 ca      1  GRA1        0.0000
    147 C          87.1897    2.1270    0.0000 ca      1  GRA1        0.0000
    148 C          88.4177    2.8360    0.0000 ca      1  GRA1        0.0000
    149 C          90.8738    0.0000    0.0000 ca      1  GRA1        0.0000
    150 C          89.6458    0.7090    0.0000 ca      1  GRA1        0.0000
    151 C          89.6458    2.1270    0.0000 ca      1  GRA1        0.0000
    152 C          90.8738    2.8360    0.0000 ca      1  GRA1        0.0000
    153 C          93.3298    0.0000    0.0000 ca      1  GRA1        0.0000
    154 C          92.1018    0.7090    0.0000 ca      1  GRA1        0.0000
    155 C          92.1018    2.1270    0.0000 ca      1  GRA1        0.0000
    156 C          93.3298    2.8360    0.0000 ca      1  GRA1        0.0000
    157 C          95.7859    0.0000    0.0000 ca      1  GRA1        0.0000
    158 C          94.5578    0.7090    0.0000 ca      1  GRA1        0.0000
    159 C          94.5578    2.1270    0.0000 ca      1  GRA1        0.0000
    160 C          95.7859    2.8360    0.0000 ca      1  GRA1        0.0000
    161 C          98.2419    0.0000    0.0000 ca      1  GRA1        0.0000
    162 C          97.0139    0.7090    0.0000 ca      1  GRA1        0.0000
    163 C          97.0139    2.1270    0.0000 ca      1  GRA1        0.0000
    164 C          98.2419    2.8360    0.0000 ca      1  GRA1        0.0000
    165 C         100.6980    0.0000    0.0000 ca      1  GRA1        0.0000
    166 C          99.4699    0.7090    0.0000 ca      1  GRA1        0.0000
    167 C          99.4699    2.1270    0.0000 ca      1  GRA1        0.0000
    168 C         100.6980    2.8360    0.0000 ca      1  GRA1        0.0000
    169 C         103.1540    0.0000    0.0000 ca      1  GRA1        0.0000
    170 C         101.9260    0.7090    0.0000 ca      1  GRA1        0.0000
    171 C         101.9260    2.1270    0.0000 ca      1  GRA1        0.0000
    172 C         103.1540    2.8360    0.0000 ca      1  GRA1        0.0000
    173 C         105.6101    0.0000    0.0000 ca      1  GRA1        0.0000
    174 C         104.3820    0.7090    0.0000 ca      1  GRA1        0.0000
    175 C         104.3820    2.1270    0.0000 ca      1  GRA1        0.0000
    176 C         105.6101    2.8360    0.0000 ca      1  GRA1        0.0000
    177 C         108.0661    0.0000    0.0000 ca      1  GRA1        0.0000
    178 C         106.8381    0.7090    0.0000 ca      1  GRA1        0.0000
    179 C         106.8381    2.1270    0.0000 ca      1  GRA1        0.0000
    180 C         108.0661    2.8360    0.0000 ca      1  GRA1        0.0000
    181 C         110.5222    0.0000    0.0000 ca      1  GRA1        0.0000
    182 C         109.2941    0.7090    0.0000 ca      1  GRA1        0.0000
    183 C         109.2941    2.1270    0.0000 ca      1  GRA1        0.0000
    184 C         110.5222    2.8360    0.0000 ca      1  GRA1        0.0000
    185 C         112.9782    0.0000    0.0000 ca      1  GRA1        0.0000
    186 C         111.7502    0.7090    0.0000 ca      1  GRA1        0.0000
    187 C         111.7502    2.1270    0.0000 ca      1  GRA1        0.0000
    188 C         112.9782    2.8360    0.0000 ca      1  GRA1        0.0000
    189 C         115.4343    0.0000    0.0000 ca      1  GRA1        0.0000
    190 C         114.2062    0.7090    0.0000 ca      1  GRA1        0.0000
    191 C         114.2062    2.1270    0.0000 ca      1  GRA1        0.0000
    192 C         115.4343    2.8360    0.0000 ca      1  GRA1        0.0000
    193 C         117.8903    0.0000    0.0000 ca      1  GRA1        0.0000
    194 C         116.6623    0.7090    0.0000 ca      1  GRA1        0.0000
    195 C         116.6623    2.1270    0.0000 ca      1  GRA1        0.0000
    196 C         117.8903    2.8360    0.0000 ca      1  GRA1        0.0000
    197 C         120.3464    0.0000    0.0000 ca      1  GRA1        0.0000
    198 C         119.1183    0.7090    0.0000 ca      1  GRA1        0.0000
    199 C         119.1183    2.1270    0.0000 ca      1  GRA1        0.0000
    200 C         120.3464    2.8360    0.0000 ca      1  GRA1        0.0000
    201 C         122.8024    0.0000    0.0000 ca      1  GRA1        0.0000
    202 C         121.5744    0.7090    0.0000 ca      1  GRA1        0.0000
    203 C         121.5744    2.1270    0.0000 ca      1  GRA1        0.0000
    204 C         122.8024    2.8360    0.0000 ca      1  GRA1        0.0000
    205 C         125.2585    0.0000    0.0000 ca      1  GRA1        0.0000
    206 C         124.0304    0.7090    0.0000 ca      1  GRA1        0.0000
    207 C         124.0304    2.1270    0.0000 ca      1  GRA1        0.0000
    208 C         125.2585    2.8360    0.0000 ca      1  GRA1        0.0000
    209 C         127.7145    0.0000    0.0000 ca      1  GRA1        0.0000
    210 C         126.4865    0.7090    0.0000 ca      1  GRA1        0.0000
    211 C         126.4865    2.1270    0.0000 ca      1  GRA1        0.0000
    212 C         127.7145    2.8360    0.0000 ca      1  GRA1        0.0000
    213 C         130.1705    0.0000    0.0000 ca      1  GRA1        0.0000
    214 C         128.9425    0.7090    0.0000 ca      1  GRA1        0.0000
    215 C         128.9425    2.1270    0.0000 ca      1  GRA1        0.0000
    216 C         130.1705    2.8360    0.0000 ca      1  GRA1        0.0000
    217 C         132.6266    0.0000    0.0000 ca      1  GRA1        0.0000
    218 C         131.3986    0.7090    0.0000 ca      1  GRA1        0.0000
    219 C         131.3986    2.1270    0.0000 ca      1  GRA1        0.0000
    220 C         132.6266    2.8360    0.0000 ca      1  GRA1        0.0000
    221 C         135.0826    0.0000    0.0000 ca      1  GRA1        0.0000
    222 C         133.8546    0.7090    0.0000 ca      1  GRA1        0.0000
    223 C         133.8546    2.1270    0.0000 ca      1  GRA1        0.0000
    224 C         135.0826    2.8360    0.0000 ca      1  GRA1        0.0000
    225 C         137.5387    0.0000    0.0000 ca      1  GRA1        0.0000
    226 C         136.3107    0.7090    0.0000 ca      1  GRA1        0.0000
    227 C         136.3107    2.1270    0.0000 ca      1  GRA1        0.0000
    228 C         137.5387    2.8360    0.0000 ca      1  GRA1        0.0000
    229 C         139.9947    0.0000    0.0000 ca      1  GRA1        0.0000
    230 C         138.7667    0.7090    0.0000 ca      1  GRA1        0.0000
    231 C         138.7667    2.1270    0.0000 ca      1  GRA1        0.0000
    232 C         139.9947    2.8360    0.0000 ca      1  GRA1        0.0000
    233 C         142.4508    0.0000    0.0000 ca      1  GRA1        0.0000
    234 C         141.2228    0.7090    0.0000 ca      1  GRA1        0.0000
    235 C         141.2228    2.1270    0.0000 ca      1  GRA1        0.0000
    236 C         142.4508    2.8360    0.0000 ca      1  GRA1        0.0000
    237 C         144.9068    0.0000    0.0000 ca      1  GRA1        0.0000
    238 C         143.6788    0.7090    0.0000 ca      1  GRA1        0.0000
    239 C         143.6788    2.1270    0.0000 ca      1  GRA1        0.0000
    240 C         144.9068    2.8360    0.0000 ca      1  GRA1        0.0000
    241 C         147.3629    0.0000    0.0000 ca      1  GRA1        0.0000
    242 C         146.1349    0.7090    0.0000 ca      1  GRA1        0.0000
    243 C         146.1349    2.1270    0.0000 ca      1  GRA1        0.0000
    244 C         147.3629    2.8360    0.0000 ca      1  GRA1        0.0000
    245 C         149.8189    0.0000    0.0000 ca      1  GRA1        0.0000
    246 C         148.5909    0.7090    0.0000 ca      1  GRA1        0.0000
    247 C         148.5909    2.1270    0.0000 ca      1  GRA1        0.0000
    248 C         149.8189    2.8360    0.0000 ca      1  GRA1        0.0000
    249 C         152.2750    0.0000    0.0000 ca      1  GRA1        0.0000
    250 C         151.0470    0.7090    0.0000 ca      1  GRA1        0.0000
    251 C         151.0470    2.1270    0.0000 ca      1  GRA1        0.0000
    252 C         152.2750    2.8360    0.0000 ca      1  GRA1        0.0000
    253 C         154.7310    0.0000    0.0000 ca      1  GRA1        0.0000
    254 C         153.5030    0.7090    0.0000 ca      1  GRA1        0.0000
    255 C         153.5030    2.1270    0.0000 ca      1  GRA1        0.0000
    256 C         154.7310    2.8360    0.0000 ca      1  GRA1        0.0000
    257 C         157.1871    0.0000    0.0000 ca      1  GRA1        0.0000
    258 C         155.9590    0.7090    0.0000 ca      1  GRA1        0.0000
    259 C         155.9590    2.1270    0.0000 ca      1  GRA1        0.0000
    260 C         157.1871    2.8360    0.0000 ca      1  GRA1        0.0000
    261 C         159.6431    0.0000    0.0000 ca      1  GRA1        0.0000
    262 C         158.4151    0.7090    0.0000 ca      1  GRA1        0.0000
    263 C         158.4151    2.1270    0.0000 ca      1  GRA1        0.0000
    264 C         159.6431    2.8360    0.0000 ca      1  GRA1        0.0000
    265 C         162.0992    0.0000    0.0000 ca      1  GRA1        0.0000
    266 C         160.8711    0.7090    0.0000 ca      1  GRA1        0.0000
    267 C         160.8711    2.1270    0.0000 ca      1  GRA1        0.0000
    268 C         162.0992    2.8360    0.0000 ca      1  GRA1        0.0000
    269 C         164.5552    0.0000    0.0000 ca      1  GRA1        0.0000
    270 C         163.3272    0.7090    0.0000 ca      1  GRA1        0.0000
    271 C         163.3272    2.1270    0.0000 ca      1  GRA1        0.0000
    272 C         164.5552    2.8360    0.0000 ca      1  GRA1        0.0000
    273 C         167.0113    0.0000    0.0000 ca      1  GRA1        0.0000
    274 C         165.7832    0.7090    0.0000 ca      1  GRA1        0.0000
    275 C         165.7832    2.1270    0.0000 ca      1  GRA1        0.0000
    276 C         167.0113    2.8360    0.0000 ca      1  GRA1        0.0000
    277 C         169.4673    0.0000    0.0000 ca      1  GRA1        0.0000
    278 C         168.2393    0.7090    0.0000 ca      1  GRA1        0.0000
    279 C         168.2393    2.1270    0.0000 ca      1  GRA1        0.0000
    280 C         169.4673    2.8360    0.0000 ca      1  GRA1        0.0000
    281 C         171.9234    0.0000    0.0000 ca      1  GRA1        0.0000
    282 C         170.6953    0.7090    0.0000 ca      1  GRA1        0.0000
    283 C         170.6953    2.1270    0.0000 ca      1  GRA1        0.0000
    284 C         171.9234    2.8360    0.0000 ca      1  GRA1        0.0000
    285 C         174.3794    0.0000    0.0000 ca      1  GRA1        0.0000
    286 C         173.1514    0.7090    0.0000 ca      1  GRA1        0.0000
    287 C         173.1514    2.1270    0.0000 ca      1  GRA1        0.0000
    288 C         174.3794    2.8360    0.0000 ca      1  GRA1        0.0000
    289 C         176.8355    0.0000    0.0000 ca      1  GRA1        0.0000
    290 C         175.6074    0.7090    0.0000 ca      1  GRA1        0.0000
    291 C         175.6074    2.1270    0.0000 ca      1  GRA1        0.0000
    292 C         176.8355    2.8360    0.0000 ca      1  GRA1        0.0000
    293 C         179.2915    0.0000    0.0000 ca      1  GRA1        0.0000
    294 C         178.0635    0.7090    0.0000 ca      1  GRA1        0.0000
    295 C         178.0635    2.1270    0.0000 ca      1  GRA1        0.0000
    296 C         179.2915    2.8360    0.0000 ca      1  GRA1        0.0000
    297 C           0.0000    4.2540    0.0000 ca      1  GRA1        0.0000
    298 C          -1.2280    4.9630    0.0000 ca      1  GRA1        0.0000
    299 C          -1.2280    6.3810    0.0000 ca      1  GRA1        0.0000
    300 C           0.0000    7.0900    0.0000 ca      1  GRA1        0.0000
    301 C           2.4560    4.2540    0.0000 ca      1  GRA1        0.0000
    302 C           1.2280    4.9630    0.0000 ca      1  GRA1        0.0000
    303 C           1.2280    6.3810    0.0000 ca      1  GRA1        0.0000
    304 C           2.4560    7.0900    0.0000 ca      1  GRA1        0.0000
    305 C           4.9121    4.2540    0.0000 ca      1  GRA1        0.0000
    306 C           3.6841    4.9630    0.0000 ca      1  GRA1        0.0000
    307 C           3.6841    6.3810    0.0000 ca      1  GRA1        0.0000
    308 C           4.9121    7.0900    0.0000 ca      1  GRA1        0.0000
    309 C           7.3681    4.2540    0.0000 ca      1  GRA1        0.0000
    310 C           6.1401    4.9630    0.0000 ca      1  GRA1        0.0000
    311 C           6.1401    6.3810    0.0000 ca      1  GRA1        0.0000
    312 C           7.3681    7.0900    0.0000 ca      1  GRA1        0.0000
    313 C           9.8242    4.2540    0.0000 ca      1  GRA1        0.0000
    314 C           8.5962    4.9630    0.0000 ca      1  GRA1        0.0000
    315 C           8.5962    6.3810    0.0000 ca      1  GRA1        0.0000
    316 C           9.8242    7.0900    0.0000 ca      1  GRA1        0.0000
    317 C          12.2802    4.2540    0.0000 ca      1  GRA1        0.0000
    318 C          11.0522    4.9630    0.0000 ca      1  GRA1        0.0000
    319 C          11.0522    6.3810    0.0000 ca      1  GRA1        0.0000
    320 C          12.2802    7.0900    0.0000 ca      1  GRA1        0.0000
    321 C          14.7363    4.2540    0.0000 ca      1  GRA1        0.0000
    322 C          13.5083    4.9630    0.0000 ca      1  GRA1        0.0000
    323 C          13.5083    6.3810    0.0000 ca      1  GRA1        0.0000
    324 C          14.7363    7.0900    0.0000 ca      1  GRA1        0.0000
    325 C          17.1923    4.2540    0.0000 ca      1  GRA1        0.0000
    326 C          15.9643    4.9630    0.0000 ca      1  GRA1        0.0000
    327 C          15.9643    6.3810    0.0000 ca      1  GRA1        0.0000
    328 C          17.1923    7.0900    0.0000 ca      1  GRA1        0.0000
    329 C          19.6484    4.2540    0.0000 ca      1  GRA1        0.0000
    330 C          18.4204    4.9630    0.0000 ca      1  GRA1        0.0000
    331 C          18.4204    6.3810    0.0000 ca      1  GRA1        0.0000
    332 C          19.6484    7.0900    0.0000 ca      1  GRA1        0.0000
    333 C          22.1044    4.2540    0.0000 ca      1  GRA1        0.0000
    334 C          20.8764    4.9630    0.0000 ca      1  GRA1        0.0000
    335 C          20.8764    6.3810    0.0000 ca      1  GRA1        0.0000
    336 C          22.1044    7.0900    0.0000 ca      1  GRA1        0.0000
    337 C          24.5605    4.2540    0.0000 ca      1  GRA1        0.0000
    338 C          23.3325    4.9630    0.0000 ca      1  GRA1        0.0000
    339 C          23.3325    6.3810    0.0000 ca      1  GRA1        0.0000
    340 C          24.5605    7.0900    0.0000 ca      1  GRA1        0.0000
    341 C          27.0165    4.2540    0.0000 ca      1  GRA1        0.0000
    342 C          25.7885    4.9630    0.0000 ca      1  GRA1        0.0000
    343 C          25.7885    6.3810    0.0000 ca      1  GRA1        0.0000
    344 C          27.0165    7.0900    0.0000 ca      1  GRA1        0.0000
    345 C          29.4726    4.2540    0.0000 ca      1  GRA1        0.0000
    346 C          28.2446    4.9630    0.0000 ca      1  GRA1        0.0000
    347 C          28.2446    6.3810    0.0000 ca      1  GRA1        0.0000
    348 C          29.4726    7.0900    0.0000 ca      1  GRA1        0.0000
    349 C          31.9286    4.2540    0.0000 ca      1  GRA1        0.0000
    350 C          30.7006    4.9630    0.0000 ca      1  GRA1        0.0000
    351 C          30.7006    6.3810    0.0000 ca      1  GRA1        0.0000
    352 C          31.9286    7.0900    0.0000 ca      1  GRA1        0.0000
    353 C          34.3847    4.2540    0.0000 ca      1  GRA1        0.0000
    354 C          33.1566    4.9630    0.0000 ca      1  GRA1        0.0000
    355 C          33.1566    6.3810    0.0000 ca      1  GRA1        0.0000
    356 C          34.3847    7.0900    0.0000 ca      1  GRA1        0.0000
    357 C          36.8407    4.2540    0.0000 ca      1  GRA1        0.0000
    358 C          35.6127    4.9630    0.0000 ca      1  GRA1        0.0000
    359 C          35.6127    6.3810    0.0000 ca      1  GRA1        0.0000
    360 C          36.8407    7.0900    0.0000 ca      1  GRA1        0.0000
    361 C          39.2968    4.2540    0.0000 ca      1  GRA1        0.0000
    362 C          38.0687    4.9630    0.0000 ca      1  GRA1        0.0000
    363 C          38.0687    6.3810    0.0000 ca      1  GRA1        0.0000
    364 C          39.2968    7.0900    0.0000 ca      1  GRA1        0.0000
    365 C          41.7528    4.2540    0.0000 ca      1  GRA1        0.0000
    366 C          40.5248    4.9630    0.0000 ca      1  GRA1        0.0000
    367 C          40.5248    6.3810    0.0000 ca      1  GRA1        0.0000
    368 C          41.7528    7.0900    0.0000 ca      1  GRA1        0.0000
    369 C          44.2089    4.2540    0.0000 ca      1  GRA1        0.0000
    370 C          42.9808    4.9630    0.0000 ca      1  GRA1        0.0000
    371 C          42.9808    6.3810    0.0000 ca      1  GRA1        0.0000
    372 C          44.2089    7.0900    0.0000 ca      1  GRA1        0.0000
    373 C          46.6649    4.2540    0.0000 ca      1  GRA1        0.0000
    374 C          45.4369    4.9630    0.0000 ca      1  GRA1        0.0000
    375 C          45.4369    6.3810    0.0000 ca      1  GRA1        0.0000
    376 C          46.6649    7.0900    0.0000 ca      1  GRA1        0.0000
    377 C          49.1210    4.2540    0.0000 ca      1  GRA1        0.0000
    378 C          47.8929    4.9630    0.0000 ca      1  GRA1        0.0000
    379 C          47.8929    6.3810    0.0000 ca      1  GRA1        0.0000
    380 C          49.1210    7.0900    0.0000 ca      1  GRA1        0.0000
    381 C          51.5770    4.2540    0.0000 ca      1  GRA1        0.0000
    382 C          50.3490    4.9630    0.0000 ca      1  GRA1        0.0000
    383 C          50.3490    6.3810    0.0000 ca      1  GRA1        0.0000
    384 C          51.5770    7.0900    0.0000 ca      1  GRA1        0.0000
    385 C          54.0331    4.2540    0.0000 ca      1  GRA1        0.0000
    386 C          52.8050    4.9630    0.0000 ca      1  GRA1        0.0000
    387 C          52.8050    6.3810    0.0000 ca      1  GRA1        0.0000
    388 C          54.0331    7.0900    0.0000 ca      1  GRA1        0.0000
    389 C          56.4891    4.2540    0.0000 ca      1  GRA1        0.0000
    390 C          55.2611    4.9630    0.0000 ca      1  GRA1        0.0000
    391 C          55.2611    6.3810    0.0000 ca      1  GRA1        0.0000
    392 C          56.4891    7.0900    0.0000 ca      1  GRA1        0.0000
    393 C          58.9452    4.2540    0.0000 ca      1  GRA1        0.0000
    394 C          57.7171    4.9630    0.0000 ca      1  GRA1        0.0000
    395 C          57.7171    6.3810    0.0000 ca      1  GRA1        0.0000
    396 C          58.9452    7.0900    0.0000 ca      1  GRA1        0.0000
    397 C          61.4012    4.2540    0.0000 ca      1  GRA1        0.0000
    398 C          60.1732    4.9630    0.0000 ca      1  GRA1        0.0000
    399 C          60.1732    6.3810    0.0000 ca      1  GRA1        0.0000
    400 C          61.4012    7.0900    0.0000 ca      1  GRA1        0.0000
    401 C          63.8573    4.2540    0.0000 ca      1  GRA1        0.0000
    402 C          62.6292    4.9630    0.0000 ca      1  GRA1        0.0000
    403 C          62.6292    6.3810    0.0000 ca      1  GRA1        0.0000
    404 C          63.8573    7.0900    0.0000 ca      1  GRA1        0.0000
    405 C          66.3133    4.2540    0.0000 ca      1  GRA1        0.0000
    406 C          65.0853    4.9630    0.0000 ca      1  GRA1        0.0000
    407 C          65.0853    6.3810    0.0000 ca      1  GRA1        0.0000
    408 C          66.3133    7.0900    0.0000 ca      1  GRA1        0.0000
    409 C          68.7693    4.2540    0.0000 ca      1  GRA1        0.0000
    410 C          67.5413    4.9630    0.0000 ca      1  GRA1        0.0000
    411 C          67.5413    6.3810    0.0000 ca      1  GRA1        0.0000
    412 C          68.7693    7.0900    0.0000 ca      1  GRA1        0.0000
    413 C          71.2254    4.2540    0.0000 ca      1  GRA1        0.0000
    414 C          69.9974    4.9630    0.0000 ca      1  GRA1        0.0000
    415 C          69.9974    6.3810    0.0000 ca      1  GRA1        0.0000
    416 C          71.2254    7.0900    0.0000 ca      1  GRA1        0.0000
    417 C          73.6814    4.2540    0.0000 ca      1  GRA1        0.0000
    418 C          72.4534    4.9630    0.0000 ca      1  GRA1        0.0000
    419 C          72.4534    6.3810    0.0000 ca      1  GRA1        0.0000
    420 C          73.6814    7.0900    0.0000 ca      1  GRA1        0.0000
    421 C          76.1375    4.2540    0.0000 ca      1  GRA1        0.0000
    422 C          74.9095    4.9630    0.0000 ca      1  GRA1        0.0000
    423 C          74.9095    6.3810    0.0000 ca      1  GRA1        0.0000
    424 C          76.1375    7.0900    0.0000 ca      1  GRA1        0.0000
    425 C          78.5935    4.2540    0.0000 ca      1  GRA1        0.0000
    426 C          77.3655    4.9630    0.0000 ca      1  GRA1        0.0000
    427 C          77.3655    6.3810    0.0000 ca      1  GRA1        0.0000
    428 C          78.5935    7.0900    0.0000 ca      1  GRA1        0.0000
    429 C          81.0496    4.2540    0.0000 ca      1  GRA1        0.0000
    430 C          79.8216    4.9630    0.0000 ca      1  GRA1        0.0000
    431 C          79.8216    6.3810    0.0000 ca      1  GRA1        0.0000
    432 C          81.0496    7.0900    0.0000 ca      1  GRA1        0.0000
    433 C          83.5056    4.2540    0.0000 ca      1  GRA1        0.0000
    434 C          82.2776    4.9630    0.0000 ca      1  GRA1        0.0000
    435 C          82.2776    6.3810    0.0000 ca      1  GRA1        0.0000
    436 C          83.5056    7.0900    0.0000 ca      1  GRA1        0.0000
    437 C          85.9617    4.2540    0.0000 ca      1  GRA1        0.0000
    438 C          84.7337    4.9630    0.0000 ca      1  GRA1        0.0000
    439 C          84.7337    6.3810    0.0000 ca      1  GRA1        0.0000
    440 C          85.9617    7.0900    0.0000 ca      1  GRA1        0.0000
    441 C          88.4177    4.2540    0.0000 ca      1  GRA1        0.0000
    442 C          87.1897    4.9630    0.0000 ca      1  GRA1        0.0000
    443 C          87.1897    6.3810    0.0000 ca      1  GRA1        0.0000
    444 C          88.4177    7.0900    0.0000 ca      1  GRA1        0.0000
    445 C          90.8738    4.2540    0.0000 ca      1  GRA1        0.0000
    446 C          89.6458    4.9630    0.0000 ca      1  GRA1        0.0000
    447 C          89.6458    6.3810    0.0000 ca      1  GRA1        0.0000
    448 C          90.8738    7.0900    0.0000 ca      1  GRA1        0.0000
    449 C          93.3298    4.2540    0.0000 ca      1  GRA1        0.0000
    450 C          92.1018    4.9630    0.0000 ca      1  GRA1        0.0000
    451 C          92.1018    6.3810    0.0000 ca      1  GRA1        0.0000
    452 C          93.3298    7.0900    0.0000 ca      1  GRA1        0.0000
    453 C          95.7859    4.2540    0.0000 ca      1  GRA1        0.0000
    454 C          94.5578    4.9630    0.0000 ca      1  GRA1        0.0000
    455 C          94.5578    6.3810    0.0000 ca      1  GRA1        0.0000
    456 C          95.7859    7.0900    0.0000 ca      1  GRA1        0.0000
    457 C          98.2419    4.2540    0.0000 ca      1  GRA1        0.0000
    458 C          97.0139    4.9630    0.0000 ca      1  GRA1        0.0000
    459 C          97.0139    6.3810    0.0000 ca      1  GRA1        0.0000
    460 C          98.2419    7.0900    0.0000 ca      1  GRA1        0.0000
    461 C         100.6980    4.2540    0.0000 ca      1  GRA1        0.0000
    462 C          99.4699    4.9630    0.0000 ca      1  GRA1        0.0000
    463 C          99.4699    6.3810    0.0000 ca      1  GRA1        0.0000
    464 C         100.6980    7.0900    0.0000 ca      1  GRA1        0.0000
    465 C         103.1540    4.2540    0.0000 ca      1  GRA1        0.0000
    466 C         101.9260    4.9630    0.0000 ca      1  GRA1        0.0000
    467 C         101.9260    6.3810    0.0000 ca      1  GRA1        0.0000
    468 C         103.1540    7.0900    0.0000 ca      1  GRA1        0.0000
    469 C         105.6101    4.2540    0.0000 ca      1  GRA1        0.0000
    470 C         104.3820    4.9630    0.0000 ca      1  GRA1        0.0000
    471 C         104.3820    6.3810    0.0000 ca      1  GRA1        0.0000
    472 C         105.6101    7.0900    0.0000 ca      1  GRA1        0.0000
    473 C         108.0661    4.2540    0.0000 ca      1  GRA1        0.0000
    474 C         106.8381    4.9630    0.0000 ca      1  GRA1        0.0000
    475 C         106.8381    6.3810    0.0000 ca      1  GRA1        0.0000
    476 C         108.0661    7.0900    0.0000 ca      1  GRA1        0.0000
    477 C         110.5222    4.2540    0.0000 ca      1  GRA1        0.0000
    478 C         109.2941    4.9630    0.0000 ca      1  GRA1        0.0000
    479 C         109.2941    6.3810    0.0000 ca      1  GRA1        0.0000
    480 C         110.5222    7.0900    0.0000 ca      1  GRA1        0.0000
    481 C         112.9782    4.2540    0.0000 ca      1  GRA1        0.0000
    482 C         111.7502    4.9630    0.0000 ca      1  GRA1        0.0000
    483 C         111.7502    6.3810    0.0000 ca      1  GRA1        0.0000
    484 C         112.9782    7.0900    0.0000 ca      1  GRA1        0.0000
    485 C         115.4343    4.2540    0.0000 ca      1  GRA1        0.0000
    486 C         114.2062    4.9630    0.0000 ca      1  GRA1        0.0000
    487 C         114.2062    6.3810    0.0000 ca      1  GRA1        0.0000
    488 C         115.4343    7.0900    0.0000 ca      1  GRA1        0.0000
    489 C         117.8903    4.2540    0.0000 ca      1  GRA1        0.0000
    490 C         116.6623    4.9630    0.0000 ca      1  GRA1        0.0000
    491 C         116.6623    6.3810    0.0000 ca      1  GRA1        0.0000
    492 C         117.8903    7.0900    0.0000 ca      1  GRA1        0.0000
    493 C         120.3464    4.2540    0.0000 ca      1  GRA1        0.0000
    494 C         119.1183    4.9630    0.0000 ca      1  GRA1        0.0000
    495 C         119.1183    6.3810    0.0000 ca      1  GRA1        0.0000
    496 C         120.3464    7.0900    0.0000 ca      1  GRA1        0.0000
    497 C         122.8024    4.2540    0.0000 ca      1  GRA1        0.0000
    498 C         121.5744    4.9630    0.0000 ca      1  GRA1        0.0000
    499 C         121.5744    6.3810    0.0000 ca      1  GRA1        0.0000
    500 C         122.8024    7.0900    0.0000 ca      1  GRA1        0.0000
    501 C         125.2585    4.2540    0.0000 ca      1  GRA1        0.0000
    502 C         124.0304    4.9630    0.0000 ca      1  GRA1        0.0000
    503 C         124.0304    6.3810    0.0000 ca      1  GRA1        0.0000
    504 C         125.2585    7.0900    0.0000 ca      1  GRA1        0.0000
    505 C         127.7145    4.2540    0.0000 ca      1  GRA1        0.0000
    506 C         126.4865    4.9630    0.0000 ca      1  GRA1        0.0000
    507 C         126.4865    6.3810    0.0000 ca      1  GRA1        0.0000
    508 C         127.7145    7.0900    0.0000 ca      1  GRA1        0.0000
    509 C         130.1705    4.2540    0.0000 ca      1  GRA1        0.0000
    510 C         128.9425    4.9630    0.0000 ca      1  GRA1        0.0000
    511 C         128.9425    6.3810    0.0000 ca      1  GRA1        0.0000
    512 C         130.1705    7.0900    0.0000 ca      1  GRA1        0.0000
    513 C         132.6266    4.2540    0.0000 ca      1  GRA1        0.0000
    514 C         131.3986    4.9630    0.0000 ca      1  GRA1        0.0000
    515 C         131.3986    6.3810    0.0000 ca      1  GRA1        0.0000
    516 C         132.6266    7.0900    0.0000 ca      1  GRA1        0.0000
    517 C         135.0826    4.2540    0.0000 ca      1  GRA1        0.0000
    518 C         133.8546    4.9630    0.0000 ca      1  GRA1        0.0000
    519 C         133.8546    6.3810    0.0000 ca      1  GRA1        0.0000
    520 C         135.0826    7.0900    0.0000 ca      1  GRA1        0.0000
    521 C         137.5387    4.2540    0.0000 ca      1  GRA1        0.0000
    522 C         136.3107    4.9630    0.0000 ca      1  GRA1        0.0000
    523 C         136.3107    6.3810    0.0000 ca      1  GRA1        0.0000
    524 C         137.5387    7.0900    0.0000 ca      1  GRA1        0.0000
    525 C         139.9947    4.2540    0.0000 ca      1  GRA1        0.0000
    526 C         138.7667    4.9630    0.0000 ca      1  GRA1        0.0000
    527 C         138.7667    6.3810    0.0000 ca      1  GRA1        0.0000
    528 C         139.9947    7.0900    0.0000 ca      1  GRA1        0.0000
    529 C         142.4508    4.2540    0.0000 ca      1  GRA1        0.0000
    530 C         141.2228    4.9630    0.0000 ca      1  GRA1        0.0000
    531 C         141.2228    6.3810    0.0000 ca      1  GRA1        0.0000
    532 C         142.4508    7.0900    0.0000 ca      1  GRA1        0.0000
    533 C         144.9068    4.2540    0.0000 ca      1  GRA1        0.0000
    534 C         143.6788    4.9630    0.0000 ca      1  GRA1        0.0000
    535 C         143.6788    6.3810    0.0000 ca      1  GRA1        0.0000
    536 C         144.9068    7.0900    0.0000 ca      1  GRA1        0.0000
    537 C         147.3629    4.2540    0.0000 ca      1  GRA1        0.0000
    538 C         146.1349    4.9630    0.0000 ca      1  GRA1        0.0000
    539 C         146.1349    6.3810    0.0000 ca      1  GRA1        0.0000
    540 C         147.3629    7.0900    0.0000 ca      1  GRA1        0.0000
    541 C         149.8189    4.2540    0.0000 ca      1  GRA1        0.0000
    542 C         148.5909    4.9630    0.0000 ca      1  GRA1        0.0000
    543 C         148.5909    6.3810    0.0000 ca      1  GRA1        0.0000
    544 C         149.8189    7.0900    0.0000 ca      1  GRA1        0.0000
    545 C         152.2750    4.2540    0.0000 ca      1  GRA1        0.0000
    546 C         151.0470    4.9630    0.0000 ca      1  GRA1        0.0000
    547 C         151.0470    6.3810    0.0000 ca      1  GRA1        0.0000
    548 C         152.2750    7.0900    0.0000 ca      1  GRA1        0.0000
    549 C         154.7310    4.2540    0.0000 ca      1  GRA1        0.0000
    550 C         153.5030    4.9630    0.0000 ca      1  GRA1        0.0000
    551 C         153.5030    6.3810    0.0000 ca      1  GRA1        0.0000
    552 C         154.7310    7.0900    0.0000 ca      1  GRA1        0.0000
    553 C         157.1871    4.2540    0.0000 ca      1  GRA1        0.0000
    554 C         155.9590    4.9630    0.0000 ca      1  GRA1        0.0000
    555 C         155.9590    6.3810    0.0000 ca      1  GRA1        0.0000
    556 C         157.1871    7.0900    0.0000 ca      1  GRA1        0.0000
    557 C         159.6431    4.2540    0.0000 ca      1  GRA1        0.0000
    558 C         158.4151    4.9630    0.0000 ca      1  GRA1        0.0000
    559 C         158.4151    6.3810    0.0000 ca      1  GRA1        0.0000
    560 C         159.6431    7.0900    0.0000 ca      1  GRA1        0.0000
    561 C         162.0992    4.2540    0.0000 ca      1  GRA1        0.0000
    562 C         160.8711    4.9630    0.0000 ca      1  GRA1        0.0000
    563 C         160.8711    6.3810    0.0000 ca      1  GRA1        0.0000
    564 C         162.0992    7.0900    0.0000 ca      1  GRA1        0.0000
    565 C         164.5552    4.2540    0.0000 ca      1  GRA1        0.0000
    566 C         163.3272    4.9630    0.0000 ca      1  GRA1        0.0000
    567 C         163.3272    6.3810    0.0000 ca      1  GRA1        0.0000
    568 C         164.5552    7.0900    0.0000 ca      1  GRA1        0.0000
    569 C         167.0113    4.2540    0.0000 ca      1  GRA1        0.0000
    570 C         165.7832    4.9630    0.0000 ca      1  GRA1        0.0000
    571 C         165.7832    6.3810    0.0000 ca      1  GRA1        0.0000
    572 C         167.0113    7.0900    0.0000 ca      1  GRA1        0.0000
    573 C         169.4673    4.2540    0.0000 ca      1  GRA1        0.0000
    574 C         168.2393    4.9630    0.0000 ca      1  GRA1        0.0000
    575 C         168.2393    6.3810    0.0000 ca      1  GRA1        0.0000
    576 C         169.4673    7.0900    0.0000 ca      1  GRA1        0.0000
    577 C         171.9234    4.2540    0.0000 ca      1  GRA1        0.0000
    578 C         170.6953    4.9630    0.0000 ca      1  GRA1        0.0000
    579 C         170.6953    6.3810    0.0000 ca      1  GRA1        0.0000
    580 C         171.9234    7.0900    0.0000 ca      1  GRA1        0.0000
    581 C         174.3794    4.2540    0.0000 ca      1  GRA1        0.0000
    582 C         173.1514    4.9630    0.0000 ca      1  GRA1        0.0000
    583 C         173.1514    6.3810    0.0000 ca      1  GRA1        0.0000
    584 C         174.3794    7.0900    0.0000 ca      1  GRA1        0.0000
    585 C         176.8355    4.2540    0.0000 ca      1  GRA1        0.0000
    586 C         175.6074    4.9630    0.0000 ca      1  GRA1        0.0000
    587 C         175.6074    6.3810    0.0000 ca      1  GRA1        0.0000
    588 C         176.8355    7.0900    0.0000 ca      1  GRA1        0.0000
    589 C         179.2915    4.2540    0.0000 ca      1  GRA1        0.0000
    590 C         178.0635    4.9630    0.0000 ca      1  GRA1        0.0000
    591 C         178.0635    6.3810    0.0000 ca      1  GRA1        0.0000
    592 C         179.2915    7.0900    0.0000 ca      1  GRA1        0.0000
    593 C           0.0000    8.5080    0.0000 ca      1  GRA1        0.0000
    594 C          -1.2280    9.2170    0.0000 ca      1  GRA1        0.0000
    595 C          -1.2280   10.6350    0.0000 ca      1  GRA1        0.0000
    596 C           0.0000   11.3440    0.0000 ca      1  GRA1        0.0000
    597 C           2.4560    8.5080    0.0000 ca      1  GRA1        0.0000
    598 C           1.2280    9.2170    0.0000 ca      1  GRA1        0.0000
    599 C           1.2280   10.6350    0.0000 ca      1  GRA1        0.0000
    600 C           2.4560   11.3440    0.0000 ca      1  GRA1        0.0000
    601 C           4.9121    8.5080    0.0000 ca      1  GRA1        0.0000
    602 C           3.6841    9.2170    0.0000 ca      1  GRA1        0.0000
    603 C           3.6841   10.6350    0.0000 ca      1  GRA1        0.0000
    604 C           4.9121   11.3440    0.0000 ca      1  GRA1        0.0000
    605 C           7.3681    8.5080    0.0000 ca      1  GRA1        0.0000
    606 C           6.1401    9.2170    0.0000 ca      1  GRA1        0.0000
    607 C           6.1401   10.6350    0.0000 ca      1  GRA1        0.0000
    608 C           7.3681   11.3440    0.0000 ca      1  GRA1        0.0000
    609 C           9.8242    8.5080    0.0000 ca      1  GRA1        0.0000
    610 C           8.5962    9.2170    0.0000 ca      1  GRA1        0.0000
    611 C           8.5962   10.6350    0.0000 ca      1  GRA1        0.0000
    612 C           9.8242   11.3440    0.0000 ca      1  GRA1        0.0000
    613 C          12.2802    8.5080    0.0000 ca      1  GRA1        0.0000
    614 C          11.0522    9.2170    0.0000 ca      1  GRA1        0.0000
    615 C          11.0522   10.6350    0.0000 ca      1  GRA1        0.0000
    616 C          12.2802   11.3440    0.0000 ca      1  GRA1        0.0000
    617 C          14.7363    8.5080    0.0000 ca      1  GRA1        0.0000
    618 C          13.5083    9.2170    0.0000 ca      1  GRA1        0.0000
    619 C          13.5083   10.6350    0.0000 ca      1  GRA1        0.0000
    620 C          14.7363   11.3440    0.0000 ca      1  GRA1        0.0000
    621 C          17.1923    8.5080    0.0000 ca      1  GRA1        0.0000
    622 C          15.9643    9.2170    0.0000 ca      1  GRA1        0.0000
    623 C          15.9643   10.6350    0.0000 ca      1  GRA1        0.0000
    624 C          17.1923   11.3440    0.0000 ca      1  GRA1        0.0000
    625 C          19.6484    8.5080    0.0000 ca      1  GRA1        0.0000
    626 C          18.4204    9.2170    0.0000 ca      1  GRA1        0.0000
    627 C          18.4204   10.6350    0.0000 ca      1  GRA1        0.0000
    628 C          19.6484   11.3440    0.0000 ca      1  GRA1        0.0000
    629 C          22.1044    8.5080    0.0000 ca      1  GRA1        0.0000
    630 C          20.8764    9.2170    0.0000 ca      1  GRA1        0.0000
    631 C          20.8764   10.6350    0.0000 ca      1  GRA1        0.0000
    632 C          22.1044   11.3440    0.0000 ca      1  GRA1        0.0000
    633 C          24.5605    8.5080    0.0000 ca      1  GRA1        0.0000
    634 C          23.3325    9.2170    0.0000 ca      1  GRA1        0.0000
    635 C          23.3325   10.6350    0.0000 ca      1  GRA1        0.0000
    636 C          24.5605   11.3440    0.0000 ca      1  GRA1        0.0000
    637 C          27.0165    8.5080    0.0000 ca      1  GRA1        0.0000
    638 C          25.7885    9.2170    0.0000 ca      1  GRA1        0.0000
    639 C          25.7885   10.6350    0.0000 ca      1  GRA1        0.0000
    640 C          27.0165   11.3440    0.0000 ca      1  GRA1        0.0000
    641 C          29.4726    8.5080    0.0000 ca      1  GRA1        0.0000
    642 C          28.2446    9.2170    0.0000 ca      1  GRA1        0.0000
    643 C          28.2446   10.6350    0.0000 ca      1  GRA1        0.0000
    644 C          29.4726   11.3440    0.0000 ca      1  GRA1        0.0000
    645 C          31.9286    8.5080    0.0000 ca      1  GRA1        0.0000
    646 C          30.7006    9.2170    0.0000 ca      1  GRA1        0.0000
    647 C          30.7006   10.6350    0.0000 ca      1  GRA1        0.0000
    648 C          31.9286   11.3440    0.0000 ca      1  GRA1        0.0000
    649 C          34.3847    8.5080    0.0000 ca      1  GRA1        0.0000
    650 C          33.1566    9.2170    0.0000 ca      1  GRA1        0.0000
    651 C          33.1566   10.6350    0.0000 ca      1  GRA1        0.0000
    652 C          34.3847   11.3440    0.0000 ca      1  GRA1        0.0000
    653 C          36.8407    8.5080    0.0000 ca      1  GRA1        0.0000
    654 C          35.6127    9.2170    0.0000 ca      1  GRA1        0.0000
    655 C          35.6127   10.6350    0.0000 ca      1  GRA1        0.0000
    656 C          36.8407   11.3440    0.0000 ca      1  GRA1        0.0000
    657 C          39.2968    8.5080    0.0000 ca      1  GRA1        0.0000
    658 C          38.0687    9.2170    0.0000 ca      1  GRA1        0.0000
    659 C          38.0687   10.6350    0.0000 ca      1  GRA1        0.0000
    660 C          39.2968   11.3440    0.0000 ca      1  GRA1        0.0000
    661 C          41.7528    8.5080    0.0000 ca      1  GRA1        0.0000
    662 C          40.5248    9.2170    0.0000 ca      1  GRA1        0.0000
    663 C          40.5248   10.6350    0.0000 ca      1  GRA1        0.0000
    664 C          41.7528   11.3440    0.0000 ca      1  GRA1        0.0000
    665 C          44.2089    8.5080    0.0000 ca      1  GRA1        0.0000
    666 C          42.9808    9.2170    0.0000 ca      1  GRA1        0.0000
    667 C          42.9808   10.6350    0.0000 ca      1  GRA1        0.0000
    668 C          44.2089   11.3440    0.0000 ca      1  GRA1        0.0000
    669 C          46.6649    8.5080    0.0000 ca      1  GRA1        0.0000
    670 C          45.4369    9.2170    0.0000 ca      1  GRA1        0.0000
    671 C          45.4369   10.6350    0.0000 ca      1  GRA1        0.0000
    672 C          46.6649   11.3440    0.0000 ca      1  GRA1        0.0000
    673 C          49.1210    8.5080    0.0000 ca      1  GRA1        0.0000
    674 C          47.8929    9.2170    0.0000 ca      1  GRA1        0.0000
    675 C          47.8929   10.6350    0.0000 ca      1  GRA1        0.0000
    676 C          49.1210   11.3440    0.0000 ca      1  GRA1        0.0000
    677 C          51.5770    8.5080    0.0000 ca      1  GRA1        0.0000
    678 C          50.3490    9.2170    0.0000 ca      1  GRA1        0.0000
    679 C          50.3490   10.6350    0.0000 ca      1  GRA1        0.0000
    680 C          51.5770   11.3440    0.0000 ca      1  GRA1        0.0000
    681 C          54.0331    8.5080    0.0000 ca      1  GRA1        0.0000
    682 C          52.8050    9.2170    0.0000 ca      1  GRA1        0.0000
    683 C          52.8050   10.6350    0.0000 ca      1  GRA1        0.0000
    684 C          54.0331   11.3440    0.0000 ca      1  GRA1        0.0000
    685 C          56.4891    8.5080    0.0000 ca      1  GRA1        0.0000
    686 C          55.2611    9.2170    0.0000 ca      1  GRA1        0.0000
    687 C          55.2611   10.6350    0.0000 ca      1  GRA1        0.0000
    688 C          56.4891   11.3440    0.0000 ca      1  GRA1        0.0000
    689 C          58.9452    8.5080    0.0000 ca      1  GRA1        0.0000
    690 C          57.7171    9.2170    0.0000 ca      1  GRA1        0.0000
    691 C          57.7171   10.6350    0.0000 ca      1  GRA1        0.0000
    692 C          58.9452   11.3440    0.0000 ca      1  GRA1        0.0000
    693 C          61.4012    8.5080    0.0000 ca      1  GRA1        0.0000
    694 C          60.1732    9.2170    0.0000 ca      1  GRA1        0.0000
    695 C          60.1732   10.6350    0.0000 ca      1  GRA1        0.0000
    696 C          61.4012   11.3440    0.0000 ca      1  GRA1        0.0000
    697 C          63.8573    8.5080    0.0000 ca      1  GRA1        0.0000
    698 C          62.6292    9.2170    0.0000 ca      1  GRA1        0.0000
    699 C          62.6292   10.6350    0.0000 ca      1  GRA1        0.0000
    700 C          63.8573   11.3440    0.0000 ca      1  GRA1        0.0000
    701 C          66.3133    8.5080    0.0000 ca      1  GRA1        0.0000
    702 C          65.0853    9.2170    0.0000 ca      1  GRA1        0.0000
    703 C          65.0853   10.6350    0.0000 ca      1  GRA1        0.0000
    704 C          66.3133   11.3440    0.0000 ca      1  GRA1        0.0000
    705 C          68.7693    8.5080    0.0000 ca      1  GRA1        0.0000
    706 C          67.5413    9.2170    0.0000 ca      1  GRA1        0.0000
    707 C          67.5413   10.6350    0.0000 ca      1  GRA1        0.0000
    708 C          68.7693   11.3440    0.0000 ca      1  GRA1        0.0000
    709 C          71.2254    8.5080    0.0000 ca      1  GRA1        0.0000
    710 C          69.9974    9.2170    0.0000 ca      1  GRA1        0.0000
    711 C          69.9974   10.6350    0.0000 ca      1  GRA1        0.0000
    712 C          71.2254   11.3440    0.0000 ca      1  GRA1        0.0000
    713 C          73.6814    8.5080    0.0000 ca      1  GRA1        0.0000
    714 C          72.4534    9.2170    0.0000 ca      1  GRA1        0.0000
    715 C          72.4534   10.6350    0.0000 ca      1  GRA1        0.0000
    716 C          73.6814   11.3440    0.0000 ca      1  GRA1        0.0000
    717 C          76.1375    8.5080    0.0000 ca      1  GRA1        0.0000
    718 C          74.9095    9.2170    0.0000 ca      1  GRA1        0.0000
    719 C          74.9095   10.6350    0.0000 ca      1  GRA1        0.0000
    720 C          76.1375   11.3440    0.0000 ca      1  GRA1        0.0000
    721 C          78.5935    8.5080    0.0000 ca      1  GRA1        0.0000
    722 C          77.3655    9.2170    0.0000 ca      1  GRA1        0.0000
    723 C          77.3655   10.6350    0.0000 ca      1  GRA1        0.0000
    724 C          78.5935   11.3440    0.0000 ca      1  GRA1        0.0000
    725 C          81.0496    8.5080    0.0000 ca      1  GRA1        0.0000
    726 C          79.8216    9.2170    0.0000 ca      1  GRA1        0.0000
    727 C          79.8216   10.6350    0.0000 ca      1  GRA1        0.0000
    728 C          81.0496   11.3440    0.0000 ca      1  GRA1        0.0000
    729 C          83.5056    8.5080    0.0000 ca      1  GRA1        0.0000
    730 C          82.2776    9.2170    0.0000 ca      1  GRA1        0.0000
    731 C          82.2776   10.6350    0.0000 ca      1  GRA1        0.0000
    732 C          83.5056   11.3440    0.0000 ca      1  GRA1        0.0000
    733 C          85.9617    8.5080    0.0000 ca      1  GRA1        0.0000
    734 C          84.7337    9.2170    0.0000 ca      1  GRA1        0.0000
    735 C          84.7337   10.6350    0.0000 ca      1  GRA1        0.0000
    736 C          85.9617   11.3440    0.0000 ca      1  GRA1        0.0000
    737 C          88.4177    8.5080    0.0000 ca      1  GRA1        0.0000
    738 C          87.1897    9.2170    0.0000 ca      1  GRA1        0.0000
    739 C          87.1897   10.6350    0.0000 ca      1  GRA1        0.0000
    740 C          88.4177   11.3440    0.0000 ca      1  GRA1        0.0000
    741 C          90.8738    8.5080    0.0000 ca      1  GRA1        0.0000
    742 C          89.6458    9.2170    0.0000 ca      1  GRA1        0.0000
    743 C          89.6458   10.6350    0.0000 ca      1  GRA1        0.0000
    744 C          90.8738   11.3440    0.0000 ca      1  GRA1        0.0000
    745 C          93.3298    8.5080    0.0000 ca      1  GRA1        0.0000
    746 C          92.1018    9.2170    0.0000 ca      1  GRA1        0.0000
    747 C          92.1018   10.6350    0.0000 ca      1  GRA1        0.0000
    748 C          93.3298   11.3440    0.0000 ca      1  GRA1        0.0000
    749 C          95.7859    8.5080    0.0000 ca      1  GRA1        0.0000
    750 C          94.5578    9.2170    0.0000 ca      1  GRA1        0.0000
    751 C          94.5578   10.6350    0.0000 ca      1  GRA1        0.0000
    752 C          95.7859   11.3440    0.0000 ca      1  GRA1        0.0000
    753 C          98.2419    8.5080    0.0000 ca      1  GRA1        0.0000
    754 C          97.0139    9.2170    0.0000 ca      1  GRA1        0.0000
    755 C          97.0139   10.6350    0.0000 ca      1  GRA1        0.0000
    756 C          98.2419   11.3440    0.0000 ca      1  GRA1        0.0000
    757 C         100.6980    8.5080    0.0000 ca      1  GRA1        0.0000
    758 C          99.4699    9.2170    0.0000 ca      1  GRA1        0.0000
    759 C          99.4699   10.6350    0.0000 ca      1  GRA1        0.0000
    760 C         100.6980   11.3440    0.0000 ca      1  GRA1        0.0000
    761 C         103.1540    8.5080    0.0000 ca      1  GRA1        0.0000
    762 C         101.9260    9.2170    0.0000 ca      1  GRA1        0.0000
    763 C         101.9260   10.6350    0.0000 ca      1  GRA1        0.0000
    764 C         103.1540   11.3440    0.0000 ca      1  GRA1        0.0000
    765 C         105.6101    8.5080    0.0000 ca      1  GRA1        0.0000
    766 C         104.3820    9.2170    0.0000 ca      1  GRA1        0.0000
    767 C         104.3820   10.6350    0.0000 ca      1  GRA1        0.0000
    768 C         105.6101   11.3440    0.0000 ca      1  GRA1        0.0000
    769 C         108.0661    8.5080    0.0000 ca      1  GRA1        0.0000
    770 C         106.8381    9.2170    0.0000 ca      1  GRA1        0.0000
    771 C         106.8381   10.6350    0.0000 ca      1  GRA1        0.0000
    772 C         108.0661   11.3440    0.0000 ca      1  GRA1        0.0000
    773 C         110.5222    8.5080    0.0000 ca      1  GRA1        0.0000
    774 C         109.2941    9.2170    0.0000 ca      1  GRA1        0.0000
    775 C         109.2941   10.6350    0.0000 ca      1  GRA1        0.0000
    776 C         110.5222   11.3440    0.0000 ca      1  GRA1        0.0000
    777 C         112.9782    8.5080    0.0000 ca      1  GRA1        0.0000
    778 C         111.7502    9.2170    0.0000 ca      1  GRA1        0.0000
    779 C         111.7502   10.6350    0.0000 ca      1  GRA1        0.0000
    780 C         112.9782   11.3440    0.0000 ca      1  GRA1        0.0000
    781 C         115.4343    8.5080    0.0000 ca      1  GRA1        0.0000
    782 C         114.2062    9.2170    0.0000 ca      1  GRA1        0.0000
    783 C         114.2062   10.6350    0.0000 ca      1  GRA1        0.0000
    784 C         115.4343   11.3440    0.0000 ca      1  GRA1        0.0000
    785 C         117.8903    8.5080    0.0000 ca      1  GRA1        0.0000
    786 C         116.6623    9.2170    0.0000 ca      1  GRA1        0.0000
    787 C         116.6623   10.6350    0.0000 ca      1  GRA1        0.0000
    788 C         117.8903   11.3440    0.0000 ca      1  GRA1        0.0000
    789 C         120.3464    8.5080    0.0000 ca      1  GRA1        0.0000
    790 C         119.1183    9.2170    0.0000 ca      1  GRA1        0.0000
    791 C         119.1183   10.6350    0.0000 ca      1  GRA1        0.0000
    792 C         120.3464   11.3440    0.0000 ca      1  GRA1        0.0000
    793 C         122.8024    8.5080    0.0000 ca      1  GRA1        0.0000
    794 C         121.5744    9.2170    0.0000 ca      1  GRA1        0.0000
    795 C         121.5744   10.6350    0.0000 ca      1  GRA1        0.0000
    796 C         122.8024   11.3440    0.0000 ca      1  GRA1        0.0000
    797 C         125.2585    8.5080    0.0000 ca      1  GRA1        0.0000
    798 C         124.0304    9.2170    0.0000 ca      1  GRA1        0.0000
    799 C         124.0304   10.6350    0.0000 ca      1  GRA1        0.0000
    800 C         125.2585   11.3440    0.0000 ca      1  GRA1        0.0000
    801 C         127.7145    8.5080    0.0000 ca      1  GRA1        0.0000
    802 C         126.4865    9.2170    0.0000 ca      1  GRA1        0.0000
    803 C         126.4865   10.6350    0.0000 ca      1  GRA1        0.0000
    804 C         127.7145   11.3440    0.0000 ca      1  GRA1        0.0000
    805 C         130.1705    8.5080    0.0000 ca      1  GRA1        0.0000
    806 C         128.9425    9.2170    0.0000 ca      1  GRA1        0.0000
    807 C         128.9425   10.6350    0.0000 ca      1  GRA1        0.0000
    808 C         130.1705   11.3440    0.0000 ca      1  GRA1        0.0000
    809 C         132.6266    8.5080    0.0000 ca      1  GRA1        0.0000
    810 C         131.3986    9.2170    0.0000 ca      1  GRA1        0.0000
    811 C         131.3986   10.6350    0.0000 ca      1  GRA1        0.0000
    812 C         132.6266   11.3440    0.0000 ca      1  GRA1        0.0000
    813 C         135.0826    8.5080    0.0000 ca      1  GRA1        0.0000
    814 C         133.8546    9.2170    0.0000 ca      1  GRA1        0.0000
    815 C         133.8546   10.6350    0.0000 ca      1  GRA1        0.0000
    816 C         135.0826   11.3440    0.0000 ca      1  GRA1        0.0000
    817 C         137.5387    8.5080    0.0000 ca      1  GRA1        0.0000
    818 C         136.3107    9.2170    0.0000 ca      1  GRA1        0.0000
    819 C         136.3107   10.6350    0.0000 ca      1  GRA1        0.0000
    820 C         137.5387   11.3440    0.0000 ca      1  GRA1        0.0000
    821 C         139.9947    8.5080    0.0000 ca      1  GRA1        0.0000
    822 C         138.7667    9.2170    0.0000 ca      1  GRA1        0.0000
    823 C         138.7667   10.6350    0.0000 ca      1  GRA1        0.0000
    824 C         139.9947   11.3440    0.0000 ca      1  GRA1        0.0000
    825 C         142.4508    8.5080    0.0000 ca      1  GRA1        0.0000
    826 C         141.2228    9.2170    0.0000 ca      1  GRA1        0.0000
    827 C         141.2228   10.6350    0.0000 ca      1  GRA1        0.0000
    828 C         142.4508   11.3440    0.0000 ca      1  GRA1        0.0000
    829 C         144.9068    8.5080    0.0000 ca      1  GRA1        0.0000
    830 C         143.6788    9.2170    0.0000 ca      1  GRA1        0.0000
    831 C         143.6788   10.6350    0.0000 ca      1  GRA1        0.0000
    832 C         144.9068   11.3440    0.0000 ca      1  GRA1        0.0000
    833 C         147.3629    8.5080    0.0000 ca      1  GRA1        0.0000
    834 C         146.1349    9.2170    0.0000 ca      1  GRA1        0.0000
    835 C         146.1349   10.6350    0.0000 ca      1  GRA1        0.0000
    836 C         147.3629   11.3440    0.0000 ca      1  GRA1        0.0000
    837 C         149.8189    8.5080    0.0000 ca      1  GRA1        0.0000
    838 C         148.5909    9.2170    0.0000 ca      1  GRA1        0.0000
    839 C         148.5909   10.6350    0.0000 ca      1  GRA1        0.0000
    840 C         149.8189   11.3440    0.0000 ca      1  GRA1        0.0000
    841 C         152.2750    8.5080    0.0000 ca      1  GRA1        0.0000
    842 C         151.0470    9.2170    0.0000 ca      1  GRA1        0.0000
    843 C         151.0470   10.6350    0.0000 ca      1  GRA1        0.0000
    844 C         152.2750   11.3440    0.0000 ca      1  GRA1        0.0000
    845 C         154.7310    8.5080    0.0000 ca      1  GRA1        0.0000
    846 C         153.5030    9.2170    0.0000 ca      1  GRA1        0.0000
    847 C         153.5030   10.6350    0.0000 ca      1  GRA1        0.0000
    848 C         154.7310   11.3440    0.0000 ca      1  GRA1        0.0000
    849 C         157.1871    8.5080    0.0000 ca      1  GRA1        0.0000
    850 C         155.9590    9.2170    0.0000 ca      1  GRA1        0.0000
    851 C         155.9590   10.6350    0.0000 ca      1  GRA1        0.0000
    852 C         157.1871   11.3440    0.0000 ca      1  GRA1        0.0000
    853 C         159.6431    8.5080    0.0000 ca      1  GRA1        0.0000
    854 C         158.4151    9.2170    0.0000 ca      1  GRA1        0.0000
    855 C         158.4151   10.6350    0.0000 ca      1  GRA1        0.0000
    856 C         159.6431   11.3440    0.0000 ca      1  GRA1        0.0000
    857 C         162.0992    8.5080    0.0000 ca      1  GRA1        0.0000
    858 C         160.8711    9.2170    0.0000 ca      1  GRA1        0.0000
    859 C         160.8711   10.6350    0.0000 ca      1  GRA1        0.0000
    860 C         162.0992   11.3440    0.0000 ca      1  GRA1        0.0000
    861 C         164.5552    8.5080    0.0000 ca      1  GRA1        0.0000
    862 C         163.3272    9.2170    0.0000 ca      1  GRA1        0.0000
    863 C         163.3272   10.6350    0.0000 ca      1  GRA1        0.0000
    864 C         164.5552   11.3440    0.0000 ca      1  GRA1        0.0000
    865 C         167.0113    8.5080    0.0000 ca      1  GRA1        0.0000
    866 C         165.7832    9.2170    0.0000 ca      1  GRA1        0.0000
    867 C         165.7832   10.6350    0.0000 ca      1  GRA1        0.0000
    868 C         167.0113   11.3440    0.0000 ca      1  GRA1        0.0000
    869 C         169.4673    8.5080    0.0000 ca      1  GRA1        0.0000
    870 C         168.2393    9.2170    0.0000 ca      1  GRA1        0.0000
    871 C         168.2393   10.6350    0.0000 ca      1  GRA1        0.0000
    872 C         169.4673   11.3440    0.0000 ca      1  GRA1        0.0000
    873 C         171.9234    8.5080    0.0000 ca      1  GRA1        0.0000
    874 C         170.6953    9.2170    0.0000 ca      1  GRA1        0.0000
    875 C         170.6953   10.6350    0.0000 ca      1  GRA1        0.0000
    876 C         171.9234   11.3440    0.0000 ca      1  GRA1        0.0000
    877 C         174.3794    8.5080    0.0000 ca      1  GRA1        0.0000
    878 C         173.1514    9.2170    0.0000 ca      1  GRA1        0.0000
    879 C         173.1514   10.6350    0.0000 ca      1  GRA1        0.0000
    880 C         174.3794   11.3440    0.0000 ca      1  GRA1        0.0000
    881 C         176.8355    8.5080    0.0000 ca      1  GRA1        0.0000
    882 C         175.6074    9.2170    0.0000 ca      1  GRA1        0.0000
    883 C         175.6074   10.6350    0.0000 ca      1  GRA1        0.0000
    884 C         176.8355   11.3440    0.0000 ca      1  GRA1        0.0000
    885 C         179.2915    8.5080    0.0000 ca      1  GRA1        0.0000
    886 C         178.0635    9.2170    0.0000 ca      1  GRA1        0.0000
    887 C         178.0635   10.6350    0.0000 ca      1  GRA1        0.0000
    888 C         179.2915   11.3440    0.0000 ca      1  GRA1        0.0000
    889 C           0.0000   12.7620    0.0000 ca      1  GRA1        0.0000
    890 C          -1.2280   13.4710    0.0000 ca      1  GRA1        0.0000
    891 C          -1.2280   14.8890    0.0000 ca      1  GRA1        0.0000
    892 C           0.0000   15.5980    0.0000 ca      1  GRA1        0.0000
    893 C           2.4560   12.7620    0.0000 ca      1  GRA1        0.0000
    894 C           1.2280   13.4710    0.0000 ca      1  GRA1        0.0000
    895 C           1.2280   14.8890    0.0000 ca      1  GRA1        0.0000
    896 C           2.4560   15.5980    0.0000 ca      1  GRA1        0.0000
    897 C           4.9121   12.7620    0.0000 ca      1  GRA1        0.0000
    898 C           3.6841   13.4710    0.0000 ca      1  GRA1        0.0000
    899 C           3.6841   14.8890    0.0000 ca      1  GRA1        0.0000
    900 C           4.9121   15.5980    0.0000 ca      1  GRA1        0.0000
    901 C           7.3681   12.7620    0.0000 ca      1  GRA1        0.0000
    902 C           6.1401   13.4710    0.0000 ca      1  GRA1        0.0000
    903 C           6.1401   14.8890    0.0000 ca      1  GRA1        0.0000
    904 C           7.3681   15.5980    0.0000 ca      1  GRA1        0.0000
    905 C           9.8242   12.7620    0.0000 ca      1  GRA1        0.0000
    906 C           8.5962   13.4710    0.0000 ca      1  GRA1        0.0000
    907 C           8.5962   14.8890    0.0000 ca      1  GRA1        0.0000
    908 C           9.8242   15.5980    0.0000 ca      1  GRA1        0.0000
    909 C          12.2802   12.7620    0.0000 ca      1  GRA1        0.0000
    910 C          11.0522   13.4710    0.0000 ca      1  GRA1        0.0000
    911 C          11.0522   14.8890    0.0000 ca      1  GRA1        0.0000
    912 C          12.2802   15.5980    0.0000 ca      1  GRA1        0.0000
    913 C          14.7363   12.7620    0.0000 ca      1  GRA1        0.0000
    914 C          13.5083   13.4710    0.0000 ca      1  GRA1        0.0000
    915 C          13.5083   14.8890    0.0000 ca      1  GRA1        0.0000
    916 C          14.7363   15.5980    0.0000 ca      1  GRA1        0.0000
    917 C          17.1923   12.7620    0.0000 ca      1  GRA1        0.0000
    918 C          15.9643   13.4710    0.0000 ca      1  GRA1        0.0000
    919 C          15.9643   14.8890    0.0000 ca      1  GRA1        0.0000
    920 C          17.1923   15.5980    0.0000 ca      1  GRA1        0.0000
    921 C          19.6484   12.7620    0.0000 ca      1  GRA1        0.0000
    922 C          18.4204   13.4710    0.0000 ca      1  GRA1        0.0000
    923 C          18.4204   14.8890    0.0000 ca      1  GRA1        0.0000
    924 C          19.6484   15.5980    0.0000 ca      1  GRA1        0.0000
    925 C          22.1044   12.7620    0.0000 ca      1  GRA1        0.0000
    926 C          20.8764   13.4710    0.0000 ca      1  GRA1        0.0000
    927 C          20.8764   14.8890    0.0000 ca      1  GRA1        0.0000
    928 C          22.1044   15.5980    0.0000 ca      1  GRA1        0.0000
    929 C          24.5605   12.7620    0.0000 ca      1  GRA1        0.0000
    930 C          23.3325   13.4710    0.0000 ca      1  GRA1        0.0000
    931 C          23.3325   14.8890    0.0000 ca      1  GRA1        0.0000
    932 C          24.5605   15.5980    0.0000 ca      1  GRA1        0.0000
    933 C          27.0165   12.7620    0.0000 ca      1  GRA1        0.0000
    934 C          25.7885   13.4710    0.0000 ca      1  GRA1        0.0000
    935 C          25.7885   14.8890    0.0000 ca      1  GRA1        0.0000
    936 C          27.0165   15.5980    0.0000 ca      1  GRA1        0.0000
    937 C          29.4726   12.7620    0.0000 ca      1  GRA1        0.0000
    938 C          28.2446   13.4710    0.0000 ca      1  GRA1        0.0000
    939 C          28.2446   14.8890    0.0000 ca      1  GRA1        0.0000
    940 C          29.4726   15.5980    0.0000 ca      1  GRA1        0.0000
    941 C          31.9286   12.7620    0.0000 ca      1  GRA1        0.0000
    942 C          30.7006   13.4710    0.0000 ca      1  GRA1        0.0000
    943 C          30.7006   14.8890    0.0000 ca      1  GRA1        0.0000
    944 C          31.9286   15.5980    0.0000 ca      1  GRA1        0.0000
    945 C          34.3847   12.7620    0.0000 ca      1  GRA1        0.0000
    946 C          33.1566   13.4710    0.0000 ca      1  GRA1        0.0000
    947 C          33.1566   14.8890    0.0000 ca      1  GRA1        0.0000
    948 C          34.3847   15.5980    0.0000 ca      1  GRA1        0.0000
    949 C          36.8407   12.7620    0.0000 ca      1  GRA1        0.0000
    950 C          35.6127   13.4710    0.0000 ca      1  GRA1        0.0000
    951 C          35.6127   14.8890    0.0000 ca      1  GRA1        0.0000
    952 C          36.8407   15.5980    0.0000 ca      1  GRA1        0.0000
    953 C          39.2968   12.7620    0.0000 ca      1  GRA1        0.0000
    954 C          38.0687   13.4710    0.0000 ca      1  GRA1        0.0000
    955 C          38.0687   14.8890    0.0000 ca      1  GRA1        0.0000
    956 C          39.2968   15.5980    0.0000 ca      1  GRA1        0.0000
    957 C          41.7528   12.7620    0.0000 ca      1  GRA1        0.0000
    958 C          40.5248   13.4710    0.0000 ca      1  GRA1        0.0000
    959 C          40.5248   14.8890    0.0000 ca      1  GRA1        0.0000
    960 C          41.7528   15.5980    0.0000 ca      1  GRA1        0.0000
    961 C          44.2089   12.7620    0.0000 ca      1  GRA1        0.0000
    962 C          42.9808   13.4710    0.0000 ca      1  GRA1        0.0000
    963 C          42.9808   14.8890    0.0000 ca      1  GRA1        0.0000
    964 C          44.2089   15.5980    0.0000 ca      1  GRA1        0.0000
    965 C          46.6649   12.7620    0.0000 ca      1  GRA1        0.0000
    966 C          45.4369   13.4710    0.0000 ca      1  GRA1        0.0000
    967 C          45.4369   14.8890    0.0000 ca      1  GRA1        0.0000
    968 C          46.6649   15.5980    0.0000 ca      1  GRA1        0.0000
    969 C          49.1210   12.7620    0.0000 ca      1  GRA1        0.0000
    970 C          47.8929   13.4710    0.0000 ca      1  GRA1        0.0000
    971 C          47.8929   14.8890    0.0000 ca      1  GRA1        0.0000
    972 C          49.1210   15.5980    0.0000 ca      1  GRA1        0.0000
    973 C          51.5770   12.7620    0.0000 ca      1  GRA1        0.0000
    974 C          50.3490   13.4710    0.0000 ca      1  GRA1        0.0000
    975 C          50.3490   14.8890    0.0000 ca      1  GRA1        0.0000
    976 C          51.5770   15.5980    0.0000 ca      1  GRA1        0.0000
    977 C          54.0331   12.7620    0.0000 ca      1  GRA1        0.0000
    978 C          52.8050   13.4710    0.0000 ca      1  GRA1        0.0000
    979 C          52.8050   14.8890    0.0000 ca      1  GRA1        0.0000
    980 C          54.0331   15.5980    0.0000 ca      1  GRA1        0.0000
    981 C          56.4891   12.7620    0.0000 ca      1  GRA1        0.0000
    982 C          55.2611   13.4710    0.0000 ca      1  GRA1        0.0000
    983 C          55.2611   14.8890    0.0000 ca      1  GRA1        0.0000
    984 C          56.4891   15.5980    0.0000 ca      1  GRA1        0.0000
    985 C          58.9452   12.7620    0.0000 ca      1  GRA1        0.0000
    986 C          57.7171   13.4710    0.0000 ca      1  GRA1        0.0000
    987 C          57.7171   14.8890    0.0000 ca      1  GRA1        0.0000
    988 C          58.9452   15.5980    0.0000 ca      1  GRA1        0.0000
    989 C          61.4012   12.7620    0.0000 ca      1  GRA1        0.0000
    990 C          60.1732   13.4710    0.0000 ca      1  GRA1        0.0000
    991 C          60.1732   14.8890    0.0000 ca      1  GRA1        0.0000
    992 C          61.4012   15.5980    0.0000 ca      1  GRA1        0.0000
    993 C          63.8573   12.7620    0.0000 ca      1  GRA1        0.0000
    994 C          62.6292   13.4710    0.0000 ca      1  GRA1        0.0000
    995 C          62.6292   14.8890    0.0000 ca      1  GRA1        0.0000
    996 C          63.8573   15.5980    0.0000 ca      1  GRA1        0.0000
    997 C          66.3133   12.7620    0.0000 ca      1  GRA1        0.0000
    998 C          65.0853   13.4710    0.0000 ca      1  GRA1        0.0000
    999 C          65.0853   14.8890    0.0000 ca      1  GRA1        0.0000
   1000 C          66.3133   15.5980    0.0000 ca      1  GRA1        0.0000
   1001 C          68.7693   12.7620    0.0000 ca      1  GRA1        0.0000
   1002 C          67.5413   13.4710    0.0000 ca      1  GRA1        0.0000
   1003 C          67.5413   14.8890    0.0000 ca      1  GRA1        0.0000
   1004 C          68.7693   15.5980    0.0000 ca      1  GRA1        0.0000
   1005 C          71.2254   12.7620    0.0000 ca      1  GRA1        0.0000
   1006 C          69.9974   13.4710    0.0000 ca      1  GRA1        0.0000
   1007 C          69.9974   14.8890    0.0000 ca      1  GRA1        0.0000
   1008 C          71.2254   15.5980    0.0000 ca      1  GRA1        0.0000
   1009 C          73.6814   12.7620    0.0000 ca      1  GRA1        0.0000
   1010 C          72.4534   13.4710    0.0000 ca      1  GRA1        0.0000
   1011 C          72.4534   14.8890    0.0000 ca      1  GRA1        0.0000
   1012 C          73.6814   15.5980    0.0000 ca      1  GRA1        0.0000
   1013 C          76.1375   12.7620    0.0000 ca      1  GRA1        0.0000
   1014 C          74.9095   13.4710    0.0000 ca      1  GRA1        0.0000
   1015 C          74.9095   14.8890    0.0000 ca      1  GRA1        0.0000
   1016 C          76.1375   15.5980    0.0000 ca      1  GRA1        0.0000
   1017 C          78.5935   12.7620    0.0000 ca      1  GRA1        0.0000
   1018 C          77.3655   13.4710    0.0000 ca      1  GRA1        0.0000
   1019 C          77.3655   14.8890    0.0000 ca      1  GRA1        0.0000
   1020 C          78.5935   15.5980    0.0000 ca      1  GRA1        0.0000
   1021 C          81.0496   12.7620    0.0000 ca      1  GRA1        0.0000
   1022 C          79.8216   13.4710    0.0000 ca      1  GRA1        0.0000
   1023 C          79.8216   14.8890    0.0000 ca      1  GRA1        0.0000
   1024 C          81.0496   15.5980    0.0000 ca      1  GRA1        0.0000
   1025 C          83.5056   12.7620    0.0000 ca      1  GRA1        0.0000
   1026 C          82.2776   13.4710    0.0000 ca      1  GRA1        0.0000
   1027 C          82.2776   14.8890    0.0000 ca      1  GRA1        0.0000
   1028 C          83.5056   15.5980    0.0000 ca      1  GRA1        0.0000
   1029 C          85.9617   12.7620    0.0000 ca      1  GRA1        0.0000
   1030 C          84.7337   13.4710    0.0000 ca      1  GRA1        0.0000
   1031 C          84.7337   14.8890    0.0000 ca      1  GRA1        0.0000
   1032 C          85.9617   15.5980    0.0000 ca      1  GRA1        0.0000
   1033 C          88.4177   12.7620    0.0000 ca      1  GRA1        0.0000
   1034 C          87.1897   13.4710    0.0000 ca      1  GRA1        0.0000
   1035 C          87.1897   14.8890    0.0000 ca      1  GRA1        0.0000
   1036 C          88.4177   15.5980    0.0000 ca      1  GRA1        0.0000
   1037 C          90.8738   12.7620    0.0000 ca      1  GRA1        0.0000
   1038 C          89.6458   13.4710    0.0000 ca      1  GRA1        0.0000
   1039 C          89.6458   14.8890    0.0000 ca      1  GRA1        0.0000
   1040 C          90.8738   15.5980    0.0000 ca      1  GRA1        0.0000
   1041 C          93.3298   12.7620    0.0000 ca      1  GRA1        0.0000
   1042 C          92.1018   13.4710    0.0000 ca      1  GRA1        0.0000
   1043 C          92.1018   14.8890    0.0000 ca      1  GRA1        0.0000
   1044 C          93.3298   15.5980    0.0000 ca      1  GRA1        0.0000
   1045 C          95.7859   12.7620    0.0000 ca      1  GRA1        0.0000
   1046 C          94.5578   13.4710    0.0000 ca      1  GRA1        0.0000
   1047 C          94.5578   14.8890    0.0000 ca      1  GRA1        0.0000
   1048 C          95.7859   15.5980    0.0000 ca      1  GRA1        0.0000
   1049 C          98.2419   12.7620    0.0000 ca      1  GRA1        0.0000
   1050 C          97.0139   13.4710    0.0000 ca      1  GRA1        0.0000
   1051 C          97.0139   14.8890    0.0000 ca      1  GRA1        0.0000
   1052 C          98.2419   15.5980    0.0000 ca      1  GRA1        0.0000
   1053 C         100.6980   12.7620    0.0000 ca      1  GRA1        0.0000
   1054 C          99.4699   13.4710    0.0000 ca      1  GRA1        0.0000
   1055 C          99.4699   14.8890    0.0000 ca      1  GRA1        0.0000
   1056 C         100.6980   15.5980    0.0000 ca      1  GRA1        0.0000
   1057 C         103.1540   12.7620    0.0000 ca      1  GRA1        0.0000
   1058 C         101.9260   13.4710    0.0000 ca      1  GRA1        0.0000
   1059 C         101.9260   14.8890    0.0000 ca      1  GRA1        0.0000
   1060 C         103.1540   15.5980    0.0000 ca      1  GRA1        0.0000
   1061 C         105.6101   12.7620    0.0000 ca      1  GRA1        0.0000
   1062 C         104.3820   13.4710    0.0000 ca      1  GRA1        0.0000
   1063 C         104.3820   14.8890    0.0000 ca      1  GRA1        0.0000
   1064 C         105.6101   15.5980    0.0000 ca      1  GRA1        0.0000
   1065 C         108.0661   12.7620    0.0000 ca      1  GRA1        0.0000
   1066 C         106.8381   13.4710    0.0000 ca      1  GRA1        0.0000
   1067 C         106.8381   14.8890    0.0000 ca      1  GRA1        0.0000
   1068 C         108.0661   15.5980    0.0000 ca      1  GRA1        0.0000
   1069 C         110.5222   12.7620    0.0000 ca      1  GRA1        0.0000
   1070 C         109.2941   13.4710    0.0000 ca      1  GRA1        0.0000
   1071 C         109.2941   14.8890    0.0000 ca      1  GRA1        0.0000
   1072 C         110.5222   15.5980    0.0000 ca      1  GRA1        0.0000
   1073 C         112.9782   12.7620    0.0000 ca      1  GRA1        0.0000
   1074 C         111.7502   13.4710    0.0000 ca      1  GRA1        0.0000
   1075 C         111.7502   14.8890    0.0000 ca      1  GRA1        0.0000
   1076 C         112.9782   15.5980    0.0000 ca      1  GRA1        0.0000
   1077 C         115.4343   12.7620    0.0000 ca      1  GRA1        0.0000
   1078 C         114.2062   13.4710    0.0000 ca      1  GRA1        0.0000
   1079 C         114.2062   14.8890    0.0000 ca      1  GRA1        0.0000
   1080 C         115.4343   15.5980    0.0000 ca      1  GRA1        0.0000
   1081 C         117.8903   12.7620    0.0000 ca      1  GRA1        0.0000
   1082 C         116.6623   13.4710    0.0000 ca      1  GRA1        0.0000
   1083 C         116.6623   14.8890    0.0000 ca      1  GRA1        0.0000
   1084 C         117.8903   15.5980    0.0000 ca      1  GRA1        0.0000
   1085 C         120.3464   12.7620    0.0000 ca      1  GRA1        0.0000
   1086 C         119.1183   13.4710    0.0000 ca      1  GRA1        0.0000
   1087 C         119.1183   14.8890    0.0000 ca      1  GRA1        0.0000
   1088 C         120.3464   15.5980    0.0000 ca      1  GRA1        0.0000
   1089 C         122.8024   12.7620    0.0000 ca      1  GRA1        0.0000
   1090 C         121.5744   13.4710    0.0000 ca      1  GRA1        0.0000
   1091 C         121.5744   14.8890    0.0000 ca      1  GRA1        0.0000
   1092 C         122.8024   15.5980    0.0000 ca      1  GRA1        0.0000
   1093 C         125.2585   12.7620    0.0000 ca      1  GRA1        0.0000
   1094 C         124.0304   13.4710    0.0000 ca      1  GRA1        0.0000
   1095 C         124.0304   14.8890    0.0000 ca      1  GRA1        0.0000
   1096 C         125.2585   15.5980    0.0000 ca      1  GRA1        0.0000
   1097 C         127.7145   12.7620    0.0000 ca      1  GRA1        0.0000
   1098 C         126.4865   13.4710    0.0000 ca      1  GRA1        0.0000
   1099 C         126.4865   14.8890    0.0000 ca      1  GRA1        0.0000
   1100 C         127.7145   15.5980    0.0000 ca      1  GRA1        0.0000
   1101 C         130.1705   12.7620    0.0000 ca      1  GRA1        0.0000
   1102 C         128.9425   13.4710    0.0000 ca      1  GRA1        0.0000
   1103 C         128.9425   14.8890    0.0000 ca      1  GRA1        0.0000
   1104 C         130.1705   15.5980    0.0000 ca      1  GRA1        0.0000
   1105 C         132.6266   12.7620    0.0000 ca      1  GRA1        0.0000
   1106 C         131.3986   13.4710    0.0000 ca      1  GRA1        0.0000
   1107 C         131.3986   14.8890    0.0000 ca      1  GRA1        0.0000
   1108 C         132.6266   15.5980    0.0000 ca      1  GRA1        0.0000
   1109 C         135.0826   12.7620    0.0000 ca      1  GRA1        0.0000
   1110 C         133.8546   13.4710    0.0000 ca      1  GRA1        0.0000
   1111 C         133.8546   14.8890    0.0000 ca      1  GRA1        0.0000
   1112 C         135.0826   15.5980    0.0000 ca      1  GRA1        0.0000
   1113 C         137.5387   12.7620    0.0000 ca      1  GRA1        0.0000
   1114 C         136.3107   13.4710    0.0000 ca      1  GRA1        0.0000
   1115 C         136.3107   14.8890    0.0000 ca      1  GRA1        0.0000
   1116 C         137.5387   15.5980    0.0000 ca      1  GRA1        0.0000
   1117 C         139.9947   12.7620    0.0000 ca      1  GRA1        0.0000
   1118 C         138.7667   13.4710    0.0000 ca      1  GRA1        0.0000
   1119 C         138.7667   14.8890    0.0000 ca      1  GRA1        0.0000
   1120 C         139.9947   15.5980    0.0000 ca      1  GRA1        0.0000
   1121 C         142.4508   12.7620    0.0000 ca      1  GRA1        0.0000
   1122 C         141.2228   13.4710    0.0000 ca      1  GRA1        0.0000
   1123 C         141.2228   14.8890    0.0000 ca      1  GRA1        0.0000
   1124 C         142.4508   15.5980    0.0000 ca      1  GRA1        0.0000
   1125 C         144.9068   12.7620    0.0000 ca      1  GRA1        0.0000
   1126 C         143.6788   13.4710    0.0000 ca      1  GRA1        0.0000
   1127 C         143.6788   14.8890    0.0000 ca      1  GRA1        0.0000
   1128 C         144.9068   15.5980    0.0000 ca      1  GRA1        0.0000
   1129 C         147.3629   12.7620    0.0000 ca      1  GRA1        0.0000
   1130 C         146.1349   13.4710    0.0000 ca      1  GRA1        0.0000
   1131 C         146.1349   14.8890    0.0000 ca      1  GRA1        0.0000
   1132 C         147.3629   15.5980    0.0000 ca      1  GRA1        0.0000
   1133 C         149.8189   12.7620    0.0000 ca      1  GRA1        0.0000
   1134 C         148.5909   13.4710    0.0000 ca      1  GRA1        0.0000
   1135 C         148.5909   14.8890    0.0000 ca      1  GRA1        0.0000
   1136 C         149.8189   15.5980    0.0000 ca      1  GRA1        0.0000
   1137 C         152.2750   12.7620    0.0000 ca      1  GRA1        0.0000
   1138 C         151.0470   13.4710    0.0000 ca      1  GRA1        0.0000
   1139 C         151.0470   14.8890    0.0000 ca      1  GRA1        0.0000
   1140 C         152.2750   15.5980    0.0000 ca      1  GRA1        0.0000
   1141 C         154.7310   12.7620    0.0000 ca      1  GRA1        0.0000
   1142 C         153.5030   13.4710    0.0000 ca      1  GRA1        0.0000
   1143 C         153.5030   14.8890    0.0000 ca      1  GRA1        0.0000
   1144 C         154.7310   15.5980    0.0000 ca      1  GRA1        0.0000
   1145 C         157.1871   12.7620    0.0000 ca      1  GRA1        0.0000
   1146 C         155.9590   13.4710    0.0000 ca      1  GRA1        0.0000
   1147 C         155.9590   14.8890    0.0000 ca      1  GRA1        0.0000
   1148 C         157.1871   15.5980    0.0000 ca      1  GRA1        0.0000
   1149 C         159.6431   12.7620    0.0000 ca      1  GRA1        0.0000
   1150 C         158.4151   13.4710    0.0000 ca      1  GRA1        0.0000
   1151 C         158.4151   14.8890    0.0000 ca      1  GRA1        0.0000
   1152 C         159.6431   15.5980    0.0000 ca      1  GRA1        0.0000
   1153 C         162.0992   12.7620    0.0000 ca      1  GRA1        0.0000
   1154 C         160.8711   13.4710    0.0000 ca      1  GRA1        0.0000
   1155 C         160.8711   14.8890    0.0000 ca      1  GRA1        0.0000
   1156 C         162.0992   15.5980    0.0000 ca      1  GRA1        0.0000
   1157 C         164.5552   12.7620    0.0000 ca      1  GRA1        0.0000
   1158 C         163.3272   13.4710    0.0000 ca      1  GRA1        0.0000
   1159 C         163.3272   14.8890    0.0000 ca      1  GRA1        0.0000
   1160 C         164.5552   15.5980    0.0000 ca      1  GRA1        0.0000
   1161 C         167.0113   12.7620    0.0000 ca      1  GRA1        0.0000
   1162 C         165.7832   13.4710    0.0000 ca      1  GRA1        0.0000
   1163 C         165.7832   14.8890    0.0000 ca      1  GRA1        0.0000
   1164 C         167.0113   15.5980    0.0000 ca      1  GRA1        0.0000
   1165 C         169.4673   12.7620    0.0000 ca      1  GRA1        0.0000
   1166 C         168.2393   13.4710    0.0000 ca      1  GRA1        0.0000
   1167 C         168.2393   14.8890    0.0000 ca      1  GRA1        0.0000
   1168 C         169.4673   15.5980    0.0000 ca      1  GRA1        0.0000
   1169 C         171.9234   12.7620    0.0000 ca      1  GRA1        0.0000
   1170 C         170.6953   13.4710    0.0000 ca      1  GRA1        0.0000
   1171 C         170.6953   14.8890    0.0000 ca      1  GRA1        0.0000
   1172 C         171.9234   15.5980    0.0000 ca      1  GRA1        0.0000
   1173 C         174.3794   12.7620    0.0000 ca      1  GRA1        0.0000
   1174 C         173.1514   13.4710    0.0000 ca      1  GRA1        0.0000
   1175 C         173.1514   14.8890    0.0000 ca      1  GRA1        0.0000
   1176 C         174.3794   15.5980    0.0000 ca      1  GRA1        0.0000
   1177 C         176.8355   12.7620    0.0000 ca      1  GRA1        0.0000
   1178 C         175.6074   13.4710    0.0000 ca      1  GRA1        0.0000
   1179 C         175.6074   14.8890    0.0000 ca      1  GRA1        0.0000
   1180 C         176.8355   15.5980    0.0000 ca      1  GRA1        0.0000
   1181 C         179.2915   12.7620    0.0000 ca      1  GRA1        0.0000
   1182 C         178.0635   13.4710    0.0000 ca      1  GRA1        0.0000
   1183 C         178.0635   14.8890    0.0000 ca      1  GRA1        0.0000
   1184 C         179.2915   15.5980    0.0000 ca      1  GRA1        0.0000
   1185 C           0.0000   17.0160    0.0000 ca      1  GRA1        0.0000
   1186 C          -1.2280   17.7250    0.0000 ca      1  GRA1        0.0000
   1187 C          -1.2280   19.1430    0.0000 ca      1  GRA1        0.0000
   1188 C           0.0000   19.8520    0.0000 ca      1  GRA1        0.0000
   1189 C           2.4560   17.0160    0.0000 ca      1  GRA1        0.0000
   1190 C           1.2280   17.7250    0.0000 ca      1  GRA1        0.0000
   1191 C           1.2280   19.1430    0.0000 ca      1  GRA1        0.0000
   1192 C           2.4560   19.8520    0.0000 ca      1  GRA1        0.0000
   1193 C           4.9121   17.0160    0.0000 ca      1  GRA1        0.0000
   1194 C           3.6841   17.7250    0.0000 ca      1  GRA1        0.0000
   1195 C           3.6841   19.1430    0.0000 ca      1  GRA1        0.0000
   1196 C           4.9121   19.8520    0.0000 ca      1  GRA1        0.0000
   1197 C           7.3681   17.0160    0.0000 ca      1  GRA1        0.0000
   1198 C           6.1401   17.7250    0.0000 ca      1  GRA1        0.0000
   1199 C           6.1401   19.1430    0.0000 ca      1  GRA1        0.0000
   1200 C           7.3681   19.8520    0.0000 ca      1  GRA1        0.0000
   1201 C           9.8242   17.0160    0.0000 ca      1  GRA1        0.0000
   1202 C           8.5962   17.7250    0.0000 ca      1  GRA1        0.0000
   1203 C           8.5962   19.1430    0.0000 ca      1  GRA1        0.0000
   1204 C           9.8242   19.8520    0.0000 ca      1  GRA1        0.0000
   1205 C          12.2802   17.0160    0.0000 ca      1  GRA1        0.0000
   1206 C          11.0522   17.7250    0.0000 ca      1  GRA1        0.0000
   1207 C          11.0522   19.1430    0.0000 ca      1  GRA1        0.0000
   1208 C          12.2802   19.8520    0.0000 ca      1  GRA1        0.0000
   1209 C          14.7363   17.0160    0.0000 ca      1  GRA1        0.0000
   1210 C          13.5083   17.7250    0.0000 ca      1  GRA1        0.0000
   1211 C          13.5083   19.1430    0.0000 ca      1  GRA1        0.0000
   1212 C          14.7363   19.8520    0.0000 ca      1  GRA1        0.0000
   1213 C          17.1923   17.0160    0.0000 ca      1  GRA1        0.0000
   1214 C          15.9643   17.7250    0.0000 ca      1  GRA1        0.0000
   1215 C          15.9643   19.1430    0.0000 ca      1  GRA1        0.0000
   1216 C          17.1923   19.8520    0.0000 ca      1  GRA1        0.0000
   1217 C          19.6484   17.0160    0.0000 ca      1  GRA1        0.0000
   1218 C          18.4204   17.7250    0.0000 ca      1  GRA1        0.0000
   1219 C          18.4204   19.1430    0.0000 ca      1  GRA1        0.0000
   1220 C          19.6484   19.8520    0.0000 ca      1  GRA1        0.0000
   1221 C          22.1044   17.0160    0.0000 ca      1  GRA1        0.0000
   1222 C          20.8764   17.7250    0.0000 ca      1  GRA1        0.0000
   1223 C          20.8764   19.1430    0.0000 ca      1  GRA1        0.0000
   1224 C          22.1044   19.8520    0.0000 ca      1  GRA1        0.0000
   1225 C          24.5605   17.0160    0.0000 ca      1  GRA1        0.0000
   1226 C          23.3325   17.7250    0.0000 ca      1  GRA1        0.0000
   1227 C          23.3325   19.1430    0.0000 ca      1  GRA1        0.0000
   1228 C          24.5605   19.8520    0.0000 ca      1  GRA1        0.0000
   1229 C          27.0165   17.0160    0.0000 ca      1  GRA1        0.0000
   1230 C          25.7885   17.7250    0.0000 ca      1  GRA1        0.0000
   1231 C          25.7885   19.1430    0.0000 ca      1  GRA1        0.0000
   1232 C          27.0165   19.8520    0.0000 ca      1  GRA1        0.0000
   1233 C          29.4726   17.0160    0.0000 ca      1  GRA1        0.0000
   1234 C          28.2446   17.7250    0.0000 ca      1  GRA1        0.0000
   1235 C          28.2446   19.1430    0.0000 ca      1  GRA1        0.0000
   1236 C          29.4726   19.8520    0.0000 ca      1  GRA1        0.0000
   1237 C          31.9286   17.0160    0.0000 ca      1  GRA1        0.0000
   1238 C          30.7006   17.7250    0.0000 ca      1  GRA1        0.0000
   1239 C          30.7006   19.1430    0.0000 ca      1  GRA1        0.0000
   1240 C          31.9286   19.8520    0.0000 ca      1  GRA1        0.0000
   1241 C          34.3847   17.0160    0.0000 ca      1  GRA1        0.0000
   1242 C          33.1566   17.7250    0.0000 ca      1  GRA1        0.0000
   1243 C          33.1566   19.1430    0.0000 ca      1  GRA1        0.0000
   1244 C          34.3847   19.8520    0.0000 ca      1  GRA1        0.0000
   1245 C          36.8407   17.0160    0.0000 ca      1  GRA1        0.0000
   1246 C          35.6127   17.7250    0.0000 ca      1  GRA1        0.0000
   1247 C          35.6127   19.1430    0.0000 ca      1  GRA1        0.0000
   1248 C          36.8407   19.8520    0.0000 ca      1  GRA1        0.0000
   1249 C          39.2968   17.0160    0.0000 ca      1  GRA1        0.0000
   1250 C          38.0687   17.7250    0.0000 ca      1  GRA1        0.0000
   1251 C          38.0687   19.1430    0.0000 ca      1  GRA1        0.0000
   1252 C          39.2968   19.8520    0.0000 ca      1  GRA1        0.0000
   1253 C          41.7528   17.0160    0.0000 ca      1  GRA1        0.0000
   1254 C          40.5248   17.7250    0.0000 ca      1  GRA1        0.0000
   1255 C          40.5248   19.1430    0.0000 ca      1  GRA1        0.0000
   1256 C          41.7528   19.8520    0.0000 ca      1  GRA1        0.0000
   1257 C          44.2089   17.0160    0.0000 ca      1  GRA1        0.0000
   1258 C          42.9808   17.7250    0.0000 ca      1  GRA1        0.0000
   1259 C          42.9808   19.1430    0.0000 ca      1  GRA1        0.0000
   1260 C          44.2089   19.8520    0.0000 ca      1  GRA1        0.0000
   1261 C          46.6649   17.0160    0.0000 ca      1  GRA1        0.0000
   1262 C          45.4369   17.7250    0.0000 ca      1  GRA1        0.0000
   1263 C          45.4369   19.1430    0.0000 ca      1  GRA1        0.0000
   1264 C          46.6649   19.8520    0.0000 ca      1  GRA1        0.0000
   1265 C          49.1210   17.0160    0.0000 ca      1  GRA1        0.0000
   1266 C          47.8929   17.7250    0.0000 ca      1  GRA1        0.0000
   1267 C          47.8929   19.1430    0.0000 ca      1  GRA1        0.0000
   1268 C          49.1210   19.8520    0.0000 ca      1  GRA1        0.0000
   1269 C          51.5770   17.0160    0.0000 ca      1  GRA1        0.0000
   1270 C          50.3490   17.7250    0.0000 ca      1  GRA1        0.0000
   1271 C          50.3490   19.1430    0.0000 ca      1  GRA1        0.0000
   1272 C          51.5770   19.8520    0.0000 ca      1  GRA1        0.0000
   1273 C          54.0331   17.0160    0.0000 ca      1  GRA1        0.0000
   1274 C          52.8050   17.7250    0.0000 ca      1  GRA1        0.0000
   1275 C          52.8050   19.1430    0.0000 ca      1  GRA1        0.0000
   1276 C          54.0331   19.8520    0.0000 ca      1  GRA1        0.0000
   1277 C          56.4891   17.0160    0.0000 ca      1  GRA1        0.0000
   1278 C          55.2611   17.7250    0.0000 ca      1  GRA1        0.0000
   1279 C          55.2611   19.1430    0.0000 ca      1  GRA1        0.0000
   1280 C          56.4891   19.8520    0.0000 ca      1  GRA1        0.0000
   1281 C          58.9452   17.0160    0.0000 ca      1  GRA1        0.0000
   1282 C          57.7171   17.7250    0.0000 ca      1  GRA1        0.0000
   1283 C          57.7171   19.1430    0.0000 ca      1  GRA1        0.0000
   1284 C          58.9452   19.8520    0.0000 ca      1  GRA1        0.0000
   1285 C          61.4012   17.0160    0.0000 ca      1  GRA1        0.0000
   1286 C          60.1732   17.7250    0.0000 ca      1  GRA1        0.0000
   1287 C          60.1732   19.1430    0.0000 ca      1  GRA1        0.0000
   1288 C          61.4012   19.8520    0.0000 ca      1  GRA1        0.0000
   1289 C          63.8573   17.0160    0.0000 ca      1  GRA1        0.0000
   1290 C          62.6292   17.7250    0.0000 ca      1  GRA1        0.0000
   1291 C          62.6292   19.1430    0.0000 ca      1  GRA1        0.0000
   1292 C          63.8573   19.8520    0.0000 ca      1  GRA1        0.0000
   1293 C          66.3133   17.0160    0.0000 ca      1  GRA1        0.0000
   1294 C          65.0853   17.7250    0.0000 ca      1  GRA1        0.0000
   1295 C          65.0853   19.1430    0.0000 ca      1  GRA1        0.0000
   1296 C          66.3133   19.8520    0.0000 ca      1  GRA1        0.0000
   1297 C          68.7693   17.0160    0.0000 ca      1  GRA1        0.0000
   1298 C          67.5413   17.7250    0.0000 ca      1  GRA1        0.0000
   1299 C          67.5413   19.1430    0.0000 ca      1  GRA1        0.0000
   1300 C          68.7693   19.8520    0.0000 ca      1  GRA1        0.0000
   1301 C          71.2254   17.0160    0.0000 ca      1  GRA1        0.0000
   1302 C          69.9974   17.7250    0.0000 ca      1  GRA1        0.0000
   1303 C          69.9974   19.1430    0.0000 ca      1  GRA1        0.0000
   1304 C          71.2254   19.8520    0.0000 ca      1  GRA1        0.0000
   1305 C          73.6814   17.0160    0.0000 ca      1  GRA1        0.0000
   1306 C          72.4534   17.7250    0.0000 ca      1  GRA1        0.0000
   1307 C          72.4534   19.1430    0.0000 ca      1  GRA1        0.0000
   1308 C          73.6814   19.8520    0.0000 ca      1  GRA1        0.0000
   1309 C          76.1375   17.0160    0.0000 ca      1  GRA1        0.0000
   1310 C          74.9095   17.7250    0.0000 ca      1  GRA1        0.0000
   1311 C          74.9095   19.1430    0.0000 ca      1  GRA1        0.0000
   1312 C          76.1375   19.8520    0.0000 ca      1  GRA1        0.0000
   1313 C          78.5935   17.0160    0.0000 ca      1  GRA1        0.0000
   1314 C          77.3655   17.7250    0.0000 ca      1  GRA1        0.0000
   1315 C          77.3655   19.1430    0.0000 ca      1  GRA1        0.0000
   1316 C          78.5935   19.8520    0.0000 ca      1  GRA1        0.0000
   1317 C          81.0496   17.0160    0.0000 ca      1  GRA1        0.0000
   1318 C          79.8216   17.7250    0.0000 ca      1  GRA1        0.0000
   1319 C          79.8216   19.1430    0.0000 ca      1  GRA1        0.0000
   1320 C          81.0496   19.8520    0.0000 ca      1  GRA1        0.0000
   1321 C          83.5056   17.0160    0.0000 ca      1  GRA1        0.0000
   1322 C          82.2776   17.7250    0.0000 ca      1  GRA1        0.0000
   1323 C          82.2776   19.1430    0.0000 ca      1  GRA1        0.0000
   1324 C          83.5056   19.8520    0.0000 ca      1  GRA1        0.0000
   1325 C          85.9617   17.0160    0.0000 ca      1  GRA1        0.0000
   1326 C          84.7337   17.7250    0.0000 ca      1  GRA1        0.0000
   1327 C          84.7337   19.1430    0.0000 ca      1  GRA1        0.0000
   1328 C          85.9617   19.8520    0.0000 ca      1  GRA1        0.0000
   1329 C          88.4177   17.0160    0.0000 ca      1  GRA1        0.0000
   1330 C          87.1897   17.7250    0.0000 ca      1  GRA1        0.0000
   1331 C          87.1897   19.1430    0.0000 ca      1  GRA1        0.0000
   1332 C          88.4177   19.8520    0.0000 ca      1  GRA1        0.0000
   1333 C          90.8738   17.0160    0.0000 ca      1  GRA1        0.0000
   1334 C          89.6458   17.7250    0.0000 ca      1  GRA1        0.0000
   1335 C          89.6458   19.1430    0.0000 ca      1  GRA1        0.0000
   1336 C          90.8738   19.8520    0.0000 ca      1  GRA1        0.0000
   1337 C          93.3298   17.0160    0.0000 ca      1  GRA1        0.0000
   1338 C          92.1018   17.7250    0.0000 ca      1  GRA1        0.0000
   1339 C          92.1018   19.1430    0.0000 ca      1  GRA1        0.0000
   1340 C          93.3298   19.8520    0.0000 ca      1  GRA1        0.0000
   1341 C          95.7859   17.0160    0.0000 ca      1  GRA1        0.0000
   1342 C          94.5578   17.7250    0.0000 ca      1  GRA1        0.0000
   1343 C          94.5578   19.1430    0.0000 ca      1  GRA1        0.0000
   1344 C          95.7859   19.8520    0.0000 ca      1  GRA1        0.0000
   1345 C          98.2419   17.0160    0.0000 ca      1  GRA1        0.0000
   1346 C          97.0139   17.7250    0.0000 ca      1  GRA1        0.0000
   1347 C          97.0139   19.1430    0.0000 ca      1  GRA1        0.0000
   1348 C          98.2419   19.8520    0.0000 ca      1  GRA1        0.0000
   1349 C         100.6980   17.0160    0.0000 ca      1  GRA1        0.0000
   1350 C          99.4699   17.7250    0.0000 ca      1  GRA1        0.0000
   1351 C          99.4699   19.1430    0.0000 ca      1  GRA1        0.0000
   1352 C         100.6980   19.8520    0.0000 ca      1  GRA1        0.0000
   1353 C         103.1540   17.0160    0.0000 ca      1  GRA1        0.0000
   1354 C         101.9260   17.7250    0.0000 ca      1  GRA1        0.0000
   1355 C         101.9260   19.1430    0.0000 ca      1  GRA1        0.0000
   1356 C         103.1540   19.8520    0.0000 ca      1  GRA1        0.0000
   1357 C         105.6101   17.0160    0.0000 ca      1  GRA1        0.0000
   1358 C         104.3820   17.7250    0.0000 ca      1  GRA1        0.0000
   1359 C         104.3820   19.1430    0.0000 ca      1  GRA1        0.0000
   1360 C         105.6101   19.8520    0.0000 ca      1  GRA1        0.0000
   1361 C         108.0661   17.0160    0.0000 ca      1  GRA1        0.0000
   1362 C         106.8381   17.7250    0.0000 ca      1  GRA1        0.0000
   1363 C         106.8381   19.1430    0.0000 ca      1  GRA1        0.0000
   1364 C         108.0661   19.8520    0.0000 ca      1  GRA1        0.0000
   1365 C         110.5222   17.0160    0.0000 ca      1  GRA1        0.0000
   1366 C         109.2941   17.7250    0.0000 ca      1  GRA1        0.0000
   1367 C         109.2941   19.1430    0.0000 ca      1  GRA1        0.0000
   1368 C         110.5222   19.8520    0.0000 ca      1  GRA1        0.0000
   1369 C         112.9782   17.0160    0.0000 ca      1  GRA1        0.0000
   1370 C         111.7502   17.7250    0.0000 ca      1  GRA1        0.0000
   1371 C         111.7502   19.1430    0.0000 ca      1  GRA1        0.0000
   1372 C         112.9782   19.8520    0.0000 ca      1  GRA1        0.0000
   1373 C         115.4343   17.0160    0.0000 ca      1  GRA1        0.0000
   1374 C         114.2062   17.7250    0.0000 ca      1  GRA1        0.0000
   1375 C         114.2062   19.1430    0.0000 ca      1  GRA1        0.0000
   1376 C         115.4343   19.8520    0.0000 ca      1  GRA1        0.0000
   1377 C         117.8903   17.0160    0.0000 ca      1  GRA1        0.0000
   1378 C         116.6623   17.7250    0.0000 ca      1  GRA1        0.0000
   1379 C         116.6623   19.1430    0.0000 ca      1  GRA1        0.0000
   1380 C         117.8903   19.8520    0.0000 ca      1  GRA1        0.0000
   1381 C         120.3464   17.0160    0.0000 ca      1  GRA1        0.0000
   1382 C         119.1183   17.7250    0.0000 ca      1  GRA1        0.0000
   1383 C         119.1183   19.1430    0.0000 ca      1  GRA1        0.0000
   1384 C         120.3464   19.8520    0.0000 ca      1  GRA1        0.0000
   1385 C         122.8024   17.0160    0.0000 ca      1  GRA1        0.0000
   1386 C         121.5744   17.7250    0.0000 ca      1  GRA1        0.0000
   1387 C         121.5744   19.1430    0.0000 ca      1  GRA1        0.0000
   1388 C         122.8024   19.8520    0.0000 ca      1  GRA1        0.0000
   1389 C         125.2585   17.0160    0.0000 ca      1  GRA1        0.0000
   1390 C         124.0304   17.7250    0.0000 ca      1  GRA1        0.0000
   1391 C         124.0304   19.1430    0.0000 ca      1  GRA1        0.0000
   1392 C         125.2585   19.8520    0.0000 ca      1  GRA1        0.0000
   1393 C         127.7145   17.0160    0.0000 ca      1  GRA1        0.0000
   1394 C         126.4865   17.7250    0.0000 ca      1  GRA1        0.0000
   1395 C         126.4865   19.1430    0.0000 ca      1  GRA1        0.0000
   1396 C         127.7145   19.8520    0.0000 ca      1  GRA1        0.0000
   1397 C         130.1705   17.0160    0.0000 ca      1  GRA1        0.0000
   1398 C         128.9425   17.7250    0.0000 ca      1  GRA1        0.0000
   1399 C         128.9425   19.1430    0.0000 ca      1  GRA1        0.0000
   1400 C         130.1705   19.8520    0.0000 ca      1  GRA1        0.0000
   1401 C         132.6266   17.0160    0.0000 ca      1  GRA1        0.0000
   1402 C         131.3986   17.7250    0.0000 ca      1  GRA1        0.0000
   1403 C         131.3986   19.1430    0.0000 ca      1  GRA1        0.0000
   1404 C         132.6266   19.8520    0.0000 ca      1  GRA1        0.0000
   1405 C         135.0826   17.0160    0.0000 ca      1  GRA1        0.0000
   1406 C         133.8546   17.7250    0.0000 ca      1  GRA1        0.0000
   1407 C         133.8546   19.1430    0.0000 ca      1  GRA1        0.0000
   1408 C         135.0826   19.8520    0.0000 ca      1  GRA1        0.0000
   1409 C         137.5387   17.0160    0.0000 ca      1  GRA1        0.0000
   1410 C         136.3107   17.7250    0.0000 ca      1  GRA1        0.0000
   1411 C         136.3107   19.1430    0.0000 ca      1  GRA1        0.0000
   1412 C         137.5387   19.8520    0.0000 ca      1  GRA1        0.0000
   1413 C         139.9947   17.0160    0.0000 ca      1  GRA1        0.0000
   1414 C         138.7667   17.7250    0.0000 ca      1  GRA1        0.0000
   1415 C         138.7667   19.1430    0.0000 ca      1  GRA1        0.0000
   1416 C         139.9947   19.8520    0.0000 ca      1  GRA1        0.0000
   1417 C         142.4508   17.0160    0.0000 ca      1  GRA1        0.0000
   1418 C         141.2228   17.7250    0.0000 ca      1  GRA1        0.0000
   1419 C         141.2228   19.1430    0.0000 ca      1  GRA1        0.0000
   1420 C         142.4508   19.8520    0.0000 ca      1  GRA1        0.0000
   1421 C         144.9068   17.0160    0.0000 ca      1  GRA1        0.0000
   1422 C         143.6788   17.7250    0.0000 ca      1  GRA1        0.0000
   1423 C         143.6788   19.1430    0.0000 ca      1  GRA1        0.0000
   1424 C         144.9068   19.8520    0.0000 ca      1  GRA1        0.0000
   1425 C         147.3629   17.0160    0.0000 ca      1  GRA1        0.0000
   1426 C         146.1349   17.7250    0.0000 ca      1  GRA1        0.0000
   1427 C         146.1349   19.1430    0.0000 ca      1  GRA1        0.0000
   1428 C         147.3629   19.8520    0.0000 ca      1  GRA1        0.0000
   1429 C         149.8189   17.0160    0.0000 ca      1  GRA1        0.0000
   1430 C         148.5909   17.7250    0.0000 ca      1  GRA1        0.0000
   1431 C         148.5909   19.1430    0.0000 ca      1  GRA1        0.0000
   1432 C         149.8189   19.8520    0.0000 ca      1  GRA1        0.0000
   1433 C         152.2750   17.0160    0.0000 ca      1  GRA1        0.0000
   1434 C         151.0470   17.7250    0.0000 ca      1  GRA1        0.0000
   1435 C         151.0470   19.1430    0.0000 ca      1  GRA1        0.0000
   1436 C         152.2750   19.8520    0.0000 ca      1  GRA1        0.0000
   1437 C         154.7310   17.0160    0.0000 ca      1  GRA1        0.0000
   1438 C         153.5030   17.7250    0.0000 ca      1  GRA1        0.0000
   1439 C         153.5030   19.1430    0.0000 ca      1  GRA1        0.0000
   1440 C         154.7310   19.8520    0.0000 ca      1  GRA1        0.0000
   1441 C         157.1871   17.0160    0.0000 ca      1  GRA1        0.0000
   1442 C         155.9590   17.7250    0.0000 ca      1  GRA1        0.0000
   1443 C         155.9590   19.1430    0.0000 ca      1  GRA1        0.0000
   1444 C         157.1871   19.8520    0.0000 ca      1  GRA1        0.0000
   1445 C         159.6431   17.0160    0.0000 ca      1  GRA1        0.0000
   1446 C         158.4151   17.7250    0.0000 ca      1  GRA1        0.0000
   1447 C         158.4151   19.1430    0.0000 ca      1  GRA1        0.0000
   1448 C         159.6431   19.8520    0.0000 ca      1  GRA1        0.0000
   1449 C         162.0992   17.0160    0.0000 ca      1  GRA1        0.0000
   1450 C         160.8711   17.7250    0.0000 ca      1  GRA1        0.0000
   1451 C         160.8711   19.1430    0.0000 ca      1  GRA1        0.0000
   1452 C         162.0992   19.8520    0.0000 ca      1  GRA1        0.0000
   1453 C         164.5552   17.0160    0.0000 ca      1  GRA1        0.0000
   1454 C         163.3272   17.7250    0.0000 ca      1  GRA1        0.0000
   1455 C         163.3272   19.1430    0.0000 ca      1  GRA1        0.0000
   1456 C         164.5552   19.8520    0.0000 ca      1  GRA1        0.0000
   1457 C         167.0113   17.0160    0.0000 ca      1  GRA1        0.0000
   1458 C         165.7832   17.7250    0.0000 ca      1  GRA1        0.0000
   1459 C         165.7832   19.1430    0.0000 ca      1  GRA1        0.0000
   1460 C         167.0113   19.8520    0.0000 ca      1  GRA1        0.0000
   1461 C         169.4673   17.0160    0.0000 ca      1  GRA1        0.0000
   1462 C         168.2393   17.7250    0.0000 ca      1  GRA1        0.0000
   1463 C         168.2393   19.1430    0.0000 ca      1  GRA1        0.0000
   1464 C         169.4673   19.8520    0.0000 ca      1  GRA1        0.0000
   1465 C         171.9234   17.0160    0.0000 ca      1  GRA1        0.0000
   1466 C         170.6953   17.7250    0.0000 ca      1  GRA1        0.0000
   1467 C         170.6953   19.1430    0.0000 ca      1  GRA1        0.0000
   1468 C         171.9234   19.8520    0.0000 ca      1  GRA1        0.0000
   1469 C         174.3794   17.0160    0.0000 ca      1  GRA1        0.0000
   1470 C         173.1514   17.7250    0.0000 ca      1  GRA1        0.0000
   1471 C         173.1514   19.1430    0.0000 ca      1  GRA1        0.0000
   1472 C         174.3794   19.8520    0.0000 ca      1  GRA1        0.0000
   1473 C         176.8355   17.0160    0.0000 ca      1  GRA1        0.0000
   1474 C         175.6074   17.7250    0.0000 ca      1  GRA1        0.0000
   1475 C         175.6074   19.1430    0.0000 ca      1  GRA1        0.0000
   1476 C         176.8355   19.8520    0.0000 ca      1  GRA1        0.0000
   1477 C         179.2915   17.0160    0.0000 ca      1  GRA1        0.0000
   1478 C         178.0635   17.7250    0.0000 ca      1  GRA1        0.0000
   1479 C         178.0635   19.1430    0.0000 ca      1  GRA1        0.0000
   1480 C         179.2915   19.8520    0.0000 ca      1  GRA1        0.0000
   1481 C           0.0000   21.2700    0.0000 ca      1  GRA1        0.0000
   1482 C          -1.2280   21.9790    0.0000 ca      1  GRA1        0.0000
   1483 C          -1.2280   23.3970    0.0000 ca      1  GRA1        0.0000
   1484 C           0.0000   24.1060    0.0000 ca      1  GRA1        0.0000
   1485 C           2.4560   21.2700    0.0000 ca      1  GRA1        0.0000
   1486 C           1.2280   21.9790    0.0000 ca      1  GRA1        0.0000
   1487 C           1.2280   23.3970    0.0000 ca      1  GRA1        0.0000
   1488 C           2.4560   24.1060    0.0000 ca      1  GRA1        0.0000
   1489 C           4.9121   21.2700    0.0000 ca      1  GRA1        0.0000
   1490 C           3.6841   21.9790    0.0000 ca      1  GRA1        0.0000
   1491 C           3.6841   23.3970    0.0000 ca      1  GRA1        0.0000
   1492 C           4.9121   24.1060    0.0000 ca      1  GRA1        0.0000
   1493 C           7.3681   21.2700    0.0000 ca      1  GRA1        0.0000
   1494 C           6.1401   21.9790    0.0000 ca      1  GRA1        0.0000
   1495 C           6.1401   23.3970    0.0000 ca      1  GRA1        0.0000
   1496 C           7.3681   24.1060    0.0000 ca      1  GRA1        0.0000
   1497 C           9.8242   21.2700    0.0000 ca      1  GRA1        0.0000
   1498 C           8.5962   21.9790    0.0000 ca      1  GRA1        0.0000
   1499 C           8.5962   23.3970    0.0000 ca      1  GRA1        0.0000
   1500 C           9.8242   24.1060    0.0000 ca      1  GRA1        0.0000
   1501 C          12.2802   21.2700    0.0000 ca      1  GRA1        0.0000
   1502 C          11.0522   21.9790    0.0000 ca      1  GRA1        0.0000
   1503 C          11.0522   23.3970    0.0000 ca      1  GRA1        0.0000
   1504 C          12.2802   24.1060    0.0000 ca      1  GRA1        0.0000
   1505 C          14.7363   21.2700    0.0000 ca      1  GRA1        0.0000
   1506 C          13.5083   21.9790    0.0000 ca      1  GRA1        0.0000
   1507 C          13.5083   23.3970    0.0000 ca      1  GRA1        0.0000
   1508 C          14.7363   24.1060    0.0000 ca      1  GRA1        0.0000
   1509 C          17.1923   21.2700    0.0000 ca      1  GRA1        0.0000
   1510 C          15.9643   21.9790    0.0000 ca      1  GRA1        0.0000
   1511 C          15.9643   23.3970    0.0000 ca      1  GRA1        0.0000
   1512 C          17.1923   24.1060    0.0000 ca      1  GRA1        0.0000
   1513 C          19.6484   21.2700    0.0000 ca      1  GRA1        0.0000
   1514 C          18.4204   21.9790    0.0000 ca      1  GRA1        0.0000
   1515 C          18.4204   23.3970    0.0000 ca      1  GRA1        0.0000
   1516 C          19.6484   24.1060    0.0000 ca      1  GRA1        0.0000
   1517 C          22.1044   21.2700    0.0000 ca      1  GRA1        0.0000
   1518 C          20.8764   21.9790    0.0000 ca      1  GRA1        0.0000
   1519 C          20.8764   23.3970    0.0000 ca      1  GRA1        0.0000
   1520 C          22.1044   24.1060    0.0000 ca      1  GRA1        0.0000
   1521 C          24.5605   21.2700    0.0000 ca      1  GRA1        0.0000
   1522 C          23.3325   21.9790    0.0000 ca      1  GRA1        0.0000
   1523 C          23.3325   23.3970    0.0000 ca      1  GRA1        0.0000
   1524 C          24.5605   24.1060    0.0000 ca      1  GRA1        0.0000
   1525 C          27.0165   21.2700    0.0000 ca      1  GRA1        0.0000
   1526 C          25.7885   21.9790    0.0000 ca      1  GRA1        0.0000
   1527 C          25.7885   23.3970    0.0000 ca      1  GRA1        0.0000
   1528 C          27.0165   24.1060    0.0000 ca      1  GRA1        0.0000
   1529 C          29.4726   21.2700    0.0000 ca      1  GRA1        0.0000
   1530 C          28.2446   21.9790    0.0000 ca      1  GRA1        0.0000
   1531 C          28.2446   23.3970    0.0000 ca      1  GRA1        0.0000
   1532 C          29.4726   24.1060    0.0000 ca      1  GRA1        0.0000
   1533 C          31.9286   21.2700    0.0000 ca      1  GRA1        0.0000
   1534 C          30.7006   21.9790    0.0000 ca      1  GRA1        0.0000
   1535 C          30.7006   23.3970    0.0000 ca      1  GRA1        0.0000
   1536 C          31.9286   24.1060    0.0000 ca      1  GRA1        0.0000
   1537 C          34.3847   21.2700    0.0000 ca      1  GRA1        0.0000
   1538 C          33.1566   21.9790    0.0000 ca      1  GRA1        0.0000
   1539 C          33.1566   23.3970    0.0000 ca      1  GRA1        0.0000
   1540 C          34.3847   24.1060    0.0000 ca      1  GRA1        0.0000
   1541 C          36.8407   21.2700    0.0000 ca      1  GRA1        0.0000
   1542 C          35.6127   21.9790    0.0000 ca      1  GRA1        0.0000
   1543 C          35.6127   23.3970    0.0000 ca      1  GRA1        0.0000
   1544 C          36.8407   24.1060    0.0000 ca      1  GRA1        0.0000
   1545 C          39.2968   21.2700    0.0000 ca      1  GRA1        0.0000
   1546 C          38.0687   21.9790    0.0000 ca      1  GRA1        0.0000
   1547 C          38.0687   23.3970    0.0000 ca      1  GRA1        0.0000
   1548 C          39.2968   24.1060    0.0000 ca      1  GRA1        0.0000
   1549 C          41.7528   21.2700    0.0000 ca      1  GRA1        0.0000
   1550 C          40.5248   21.9790    0.0000 ca      1  GRA1        0.0000
   1551 C          40.5248   23.3970    0.0000 ca      1  GRA1        0.0000
   1552 C          41.7528   24.1060    0.0000 ca      1  GRA1        0.0000
   1553 C          44.2089   21.2700    0.0000 ca      1  GRA1        0.0000
   1554 C          42.9808   21.9790    0.0000 ca      1  GRA1        0.0000
   1555 C          42.9808   23.3970    0.0000 ca      1  GRA1        0.0000
   1556 C          44.2089   24.1060    0.0000 ca      1  GRA1        0.0000
   1557 C          46.6649   21.2700    0.0000 ca      1  GRA1        0.0000
   1558 C          45.4369   21.9790    0.0000 ca      1  GRA1        0.0000
   1559 C          45.4369   23.3970    0.0000 ca      1  GRA1        0.0000
   1560 C          46.6649   24.1060    0.0000 ca      1  GRA1        0.0000
   1561 C          49.1210   21.2700    0.0000 ca      1  GRA1        0.0000
   1562 C          47.8929   21.9790    0.0000 ca      1  GRA1        0.0000
   1563 C          47.8929   23.3970    0.0000 ca      1  GRA1        0.0000
   1564 C          49.1210   24.1060    0.0000 ca      1  GRA1        0.0000
   1565 C          51.5770   21.2700    0.0000 ca      1  GRA1        0.0000
   1566 C          50.3490   21.9790    0.0000 ca      1  GRA1        0.0000
   1567 C          50.3490   23.3970    0.0000 ca      1  GRA1        0.0000
   1568 C          51.5770   24.1060    0.0000 ca      1  GRA1        0.0000
   1569 C          54.0331   21.2700    0.0000 ca      1  GRA1        0.0000
   1570 C          52.8050   21.9790    0.0000 ca      1  GRA1        0.0000
   1571 C          52.8050   23.3970    0.0000 ca      1  GRA1        0.0000
   1572 C          54.0331   24.1060    0.0000 ca      1  GRA1        0.0000
   1573 C          56.4891   21.2700    0.0000 ca      1  GRA1        0.0000
   1574 C          55.2611   21.9790    0.0000 ca      1  GRA1        0.0000
   1575 C          55.2611   23.3970    0.0000 ca      1  GRA1        0.0000
   1576 C          56.4891   24.1060    0.0000 ca      1  GRA1        0.0000
   1577 C          58.9452   21.2700    0.0000 ca      1  GRA1        0.0000
   1578 C          57.7171   21.9790    0.0000 ca      1  GRA1        0.0000
   1579 C          57.7171   23.3970    0.0000 ca      1  GRA1        0.0000
   1580 C          58.9452   24.1060    0.0000 ca      1  GRA1        0.0000
   1581 C          61.4012   21.2700    0.0000 ca      1  GRA1        0.0000
   1582 C          60.1732   21.9790    0.0000 ca      1  GRA1        0.0000
   1583 C          60.1732   23.3970    0.0000 ca      1  GRA1        0.0000
   1584 C          61.4012   24.1060    0.0000 ca      1  GRA1        0.0000
   1585 C          63.8573   21.2700    0.0000 ca      1  GRA1        0.0000
   1586 C          62.6292   21.9790    0.0000 ca      1  GRA1        0.0000
   1587 C          62.6292   23.3970    0.0000 ca      1  GRA1        0.0000
   1588 C          63.8573   24.1060    0.0000 ca      1  GRA1        0.0000
   1589 C          66.3133   21.2700    0.0000 ca      1  GRA1        0.0000
   1590 C          65.0853   21.9790    0.0000 ca      1  GRA1        0.0000
   1591 C          65.0853   23.3970    0.0000 ca      1  GRA1        0.0000
   1592 C          66.3133   24.1060    0.0000 ca      1  GRA1        0.0000
   1593 C          68.7693   21.2700    0.0000 ca      1  GRA1        0.0000
   1594 C          67.5413   21.9790    0.0000 ca      1  GRA1        0.0000
   1595 C          67.5413   23.3970    0.0000 ca      1  GRA1        0.0000
   1596 C          68.7693   24.1060    0.0000 ca      1  GRA1        0.0000
   1597 C          71.2254   21.2700    0.0000 ca      1  GRA1        0.0000
   1598 C          69.9974   21.9790    0.0000 ca      1  GRA1        0.0000
   1599 C          69.9974   23.3970    0.0000 ca      1  GRA1        0.0000
   1600 C          71.2254   24.1060    0.0000 ca      1  GRA1        0.0000
   1601 C          73.6814   21.2700    0.0000 ca      1  GRA1        0.0000
   1602 C          72.4534   21.9790    0.0000 ca      1  GRA1        0.0000
   1603 C          72.4534   23.3970    0.0000 ca      1  GRA1        0.0000
   1604 C          73.6814   24.1060    0.0000 ca      1  GRA1        0.0000
   1605 C          76.1375   21.2700    0.0000 ca      1  GRA1        0.0000
   1606 C          74.9095   21.9790    0.0000 ca      1  GRA1        0.0000
   1607 C          74.9095   23.3970    0.0000 ca      1  GRA1        0.0000
   1608 C          76.1375   24.1060    0.0000 ca      1  GRA1        0.0000
   1609 C          78.5935   21.2700    0.0000 ca      1  GRA1        0.0000
   1610 C          77.3655   21.9790    0.0000 ca      1  GRA1        0.0000
   1611 C          77.3655   23.3970    0.0000 ca      1  GRA1        0.0000
   1612 C          78.5935   24.1060    0.0000 ca      1  GRA1        0.0000
   1613 C          81.0496   21.2700    0.0000 ca      1  GRA1        0.0000
   1614 C          79.8216   21.9790    0.0000 ca      1  GRA1        0.0000
   1615 C          79.8216   23.3970    0.0000 ca      1  GRA1        0.0000
   1616 C          81.0496   24.1060    0.0000 ca      1  GRA1        0.0000
   1617 C          83.5056   21.2700    0.0000 ca      1  GRA1        0.0000
   1618 C          82.2776   21.9790    0.0000 ca      1  GRA1        0.0000
   1619 C          82.2776   23.3970    0.0000 ca      1  GRA1        0.0000
   1620 C          83.5056   24.1060    0.0000 ca      1  GRA1        0.0000
   1621 C          85.9617   21.2700    0.0000 ca      1  GRA1        0.0000
   1622 C          84.7337   21.9790    0.0000 ca      1  GRA1        0.0000
   1623 C          84.7337   23.3970    0.0000 ca      1  GRA1        0.0000
   1624 C          85.9617   24.1060    0.0000 ca      1  GRA1        0.0000
   1625 C          88.4177   21.2700    0.0000 ca      1  GRA1        0.0000
   1626 C          87.1897   21.9790    0.0000 ca      1  GRA1        0.0000
   1627 C          87.1897   23.3970    0.0000 ca      1  GRA1        0.0000
   1628 C          88.4177   24.1060    0.0000 ca      1  GRA1        0.0000
   1629 C          90.8738   21.2700    0.0000 ca      1  GRA1        0.0000
   1630 C          89.6458   21.9790    0.0000 ca      1  GRA1        0.0000
   1631 C          89.6458   23.3970    0.0000 ca      1  GRA1        0.0000
   1632 C          90.8738   24.1060    0.0000 ca      1  GRA1        0.0000
   1633 C          93.3298   21.2700    0.0000 ca      1  GRA1        0.0000
   1634 C          92.1018   21.9790    0.0000 ca      1  GRA1        0.0000
   1635 C          92.1018   23.3970    0.0000 ca      1  GRA1        0.0000
   1636 C          93.3298   24.1060    0.0000 ca      1  GRA1        0.0000
   1637 C          95.7859   21.2700    0.0000 ca      1  GRA1        0.0000
   1638 C          94.5578   21.9790    0.0000 ca      1  GRA1        0.0000
   1639 C          94.5578   23.3970    0.0000 ca      1  GRA1        0.0000
   1640 C          95.7859   24.1060    0.0000 ca      1  GRA1        0.0000
   1641 C          98.2419   21.2700    0.0000 ca      1  GRA1        0.0000
   1642 C          97.0139   21.9790    0.0000 ca      1  GRA1        0.0000
   1643 C          97.0139   23.3970    0.0000 ca      1  GRA1        0.0000
   1644 C          98.2419   24.1060    0.0000 ca      1  GRA1        0.0000
   1645 C         100.6980   21.2700    0.0000 ca      1  GRA1        0.0000
   1646 C          99.4699   21.9790    0.0000 ca      1  GRA1        0.0000
   1647 C          99.4699   23.3970    0.0000 ca      1  GRA1        0.0000
   1648 C         100.6980   24.1060    0.0000 ca      1  GRA1        0.0000
   1649 C         103.1540   21.2700    0.0000 ca      1  GRA1        0.0000
   1650 C         101.9260   21.9790    0.0000 ca      1  GRA1        0.0000
   1651 C         101.9260   23.3970    0.0000 ca      1  GRA1        0.0000
   1652 C         103.1540   24.1060    0.0000 ca      1  GRA1        0.0000
   1653 C         105.6101   21.2700    0.0000 ca      1  GRA1        0.0000
   1654 C         104.3820   21.9790    0.0000 ca      1  GRA1        0.0000
   1655 C         104.3820   23.3970    0.0000 ca      1  GRA1        0.0000
   1656 C         105.6101   24.1060    0.0000 ca      1  GRA1        0.0000
   1657 C         108.0661   21.2700    0.0000 ca      1  GRA1        0.0000
   1658 C         106.8381   21.9790    0.0000 ca      1  GRA1        0.0000
   1659 C         106.8381   23.3970    0.0000 ca      1  GRA1        0.0000
   1660 C         108.0661   24.1060    0.0000 ca      1  GRA1        0.0000
   1661 C         110.5222   21.2700    0.0000 ca      1  GRA1        0.0000
   1662 C         109.2941   21.9790    0.0000 ca      1  GRA1        0.0000
   1663 C         109.2941   23.3970    0.0000 ca      1  GRA1        0.0000
   1664 C         110.5222   24.1060    0.0000 ca      1  GRA1        0.0000
   1665 C         112.9782   21.2700    0.0000 ca      1  GRA1        0.0000
   1666 C         111.7502   21.9790    0.0000 ca      1  GRA1        0.0000
   1667 C         111.7502   23.3970    0.0000 ca      1  GRA1        0.0000
   1668 C         112.9782   24.1060    0.0000 ca      1  GRA1        0.0000
   1669 C         115.4343   21.2700    0.0000 ca      1  GRA1        0.0000
   1670 C         114.2062   21.9790    0.0000 ca      1  GRA1        0.0000
   1671 C         114.2062   23.3970    0.0000 ca      1  GRA1        0.0000
   1672 C         115.4343   24.1060    0.0000 ca      1  GRA1        0.0000
   1673 C         117.8903   21.2700    0.0000 ca      1  GRA1        0.0000
   1674 C         116.6623   21.9790    0.0000 ca      1  GRA1        0.0000
   1675 C         116.6623   23.3970    0.0000 ca      1  GRA1        0.0000
   1676 C         117.8903   24.1060    0.0000 ca      1  GRA1        0.0000
   1677 C         120.3464   21.2700    0.0000 ca      1  GRA1        0.0000
   1678 C         119.1183   21.9790    0.0000 ca      1  GRA1        0.0000
   1679 C         119.1183   23.3970    0.0000 ca      1  GRA1        0.0000
   1680 C         120.3464   24.1060    0.0000 ca      1  GRA1        0.0000
   1681 C         122.8024   21.2700    0.0000 ca      1  GRA1        0.0000
   1682 C         121.5744   21.9790    0.0000 ca      1  GRA1        0.0000
   1683 C         121.5744   23.3970    0.0000 ca      1  GRA1        0.0000
   1684 C         122.8024   24.1060    0.0000 ca      1  GRA1        0.0000
   1685 C         125.2585   21.2700    0.0000 ca      1  GRA1        0.0000
   1686 C         124.0304   21.9790    0.0000 ca      1  GRA1        0.0000
   1687 C         124.0304   23.3970    0.0000 ca      1  GRA1        0.0000
   1688 C         125.2585   24.1060    0.0000 ca      1  GRA1        0.0000
   1689 C         127.7145   21.2700    0.0000 ca      1  GRA1        0.0000
   1690 C         126.4865   21.9790    0.0000 ca      1  GRA1        0.0000
   1691 C         126.4865   23.3970    0.0000 ca      1  GRA1        0.0000
   1692 C         127.7145   24.1060    0.0000 ca      1  GRA1        0.0000
   1693 C         130.1705   21.2700    0.0000 ca      1  GRA1        0.0000
   1694 C         128.9425   21.9790    0.0000 ca      1  GRA1        0.0000
   1695 C         128.9425   23.3970    0.0000 ca      1  GRA1        0.0000
   1696 C         130.1705   24.1060    0.0000 ca      1  GRA1        0.0000
   1697 C         132.6266   21.2700    0.0000 ca      1  GRA1        0.0000
   1698 C         131.3986   21.9790    0.0000 ca      1  GRA1        0.0000
   1699 C         131.3986   23.3970    0.0000 ca      1  GRA1        0.0000
   1700 C         132.6266   24.1060    0.0000 ca      1  GRA1        0.0000
   1701 C         135.0826   21.2700    0.0000 ca      1  GRA1        0.0000
   1702 C         133.8546   21.9790    0.0000 ca      1  GRA1        0.0000
   1703 C         133.8546   23.3970    0.0000 ca      1  GRA1        0.0000
   1704 C         135.0826   24.1060    0.0000 ca      1  GRA1        0.0000
   1705 C         137.5387   21.2700    0.0000 ca      1  GRA1        0.0000
   1706 C         136.3107   21.9790    0.0000 ca      1  GRA1        0.0000
   1707 C         136.3107   23.3970    0.0000 ca      1  GRA1        0.0000
   1708 C         137.5387   24.1060    0.0000 ca      1  GRA1        0.0000
   1709 C         139.9947   21.2700    0.0000 ca      1  GRA1        0.0000
   1710 C         138.7667   21.9790    0.0000 ca      1  GRA1        0.0000
   1711 C         138.7667   23.3970    0.0000 ca      1  GRA1        0.0000
   1712 C         139.9947   24.1060    0.0000 ca      1  GRA1        0.0000
   1713 C         142.4508   21.2700    0.0000 ca      1  GRA1        0.0000
   1714 C         141.2228   21.9790    0.0000 ca      1  GRA1        0.0000
   1715 C         141.2228   23.3970    0.0000 ca      1  GRA1        0.0000
   1716 C         142.4508   24.1060    0.0000 ca      1  GRA1        0.0000
   1717 C         144.9068   21.2700    0.0000 ca      1  GRA1        0.0000
   1718 C         143.6788   21.9790    0.0000 ca      1  GRA1        0.0000
   1719 C         143.6788   23.3970    0.0000 ca      1  GRA1        0.0000
   1720 C         144.9068   24.1060    0.0000 ca      1  GRA1        0.0000
   1721 C         147.3629   21.2700    0.0000 ca      1  GRA1        0.0000
   1722 C         146.1349   21.9790    0.0000 ca      1  GRA1        0.0000
   1723 C         146.1349   23.3970    0.0000 ca      1  GRA1        0.0000
   1724 C         147.3629   24.1060    0.0000 ca      1  GRA1        0.0000
   1725 C         149.8189   21.2700    0.0000 ca      1  GRA1        0.0000
   1726 C         148.5909   21.9790    0.0000 ca      1  GRA1        0.0000
   1727 C         148.5909   23.3970    0.0000 ca      1  GRA1        0.0000
   1728 C         149.8189   24.1060    0.0000 ca      1  GRA1        0.0000
   1729 C         152.2750   21.2700    0.0000 ca      1  GRA1        0.0000
   1730 C         151.0470   21.9790    0.0000 ca      1  GRA1        0.0000
   1731 C         151.0470   23.3970    0.0000 ca      1  GRA1        0.0000
   1732 C         152.2750   24.1060    0.0000 ca      1  GRA1        0.0000
   1733 C         154.7310   21.2700    0.0000 ca      1  GRA1        0.0000
   1734 C         153.5030   21.9790    0.0000 ca      1  GRA1        0.0000
   1735 C         153.5030   23.3970    0.0000 ca      1  GRA1        0.0000
   1736 C         154.7310   24.1060    0.0000 ca      1  GRA1        0.0000
   1737 C         157.1871   21.2700    0.0000 ca      1  GRA1        0.0000
   1738 C         155.9590   21.9790    0.0000 ca      1  GRA1        0.0000
   1739 C         155.9590   23.3970    0.0000 ca      1  GRA1        0.0000
   1740 C         157.1871   24.1060    0.0000 ca      1  GRA1        0.0000
   1741 C         159.6431   21.2700    0.0000 ca      1  GRA1        0.0000
   1742 C         158.4151   21.9790    0.0000 ca      1  GRA1        0.0000
   1743 C         158.4151   23.3970    0.0000 ca      1  GRA1        0.0000
   1744 C         159.6431   24.1060    0.0000 ca      1  GRA1        0.0000
   1745 C         162.0992   21.2700    0.0000 ca      1  GRA1        0.0000
   1746 C         160.8711   21.9790    0.0000 ca      1  GRA1        0.0000
   1747 C         160.8711   23.3970    0.0000 ca      1  GRA1        0.0000
   1748 C         162.0992   24.1060    0.0000 ca      1  GRA1        0.0000
   1749 C         164.5552   21.2700    0.0000 ca      1  GRA1        0.0000
   1750 C         163.3272   21.9790    0.0000 ca      1  GRA1        0.0000
   1751 C         163.3272   23.3970    0.0000 ca      1  GRA1        0.0000
   1752 C         164.5552   24.1060    0.0000 ca      1  GRA1        0.0000
   1753 C         167.0113   21.2700    0.0000 ca      1  GRA1        0.0000
   1754 C         165.7832   21.9790    0.0000 ca      1  GRA1        0.0000
   1755 C         165.7832   23.3970    0.0000 ca      1  GRA1        0.0000
   1756 C         167.0113   24.1060    0.0000 ca      1  GRA1        0.0000
   1757 C         169.4673   21.2700    0.0000 ca      1  GRA1        0.0000
   1758 C         168.2393   21.9790    0.0000 ca      1  GRA1        0.0000
   1759 C         168.2393   23.3970    0.0000 ca      1  GRA1        0.0000
   1760 C         169.4673   24.1060    0.0000 ca      1  GRA1        0.0000
   1761 C         171.9234   21.2700    0.0000 ca      1  GRA1        0.0000
   1762 C         170.6953   21.9790    0.0000 ca      1  GRA1        0.0000
   1763 C         170.6953   23.3970    0.0000 ca      1  GRA1        0.0000
   1764 C         171.9234   24.1060    0.0000 ca      1  GRA1        0.0000
   1765 C         174.3794   21.2700    0.0000 ca      1  GRA1        0.0000
   1766 C         173.1514   21.9790    0.0000 ca      1  GRA1        0.0000
   1767 C         173.1514   23.3970    0.0000 ca      1  GRA1        0.0000
   1768 C         174.3794   24.1060    0.0000 ca      1  GRA1        0.0000
   1769 C         176.8355   21.2700    0.0000 ca      1  GRA1        0.0000
   1770 C         175.6074   21.9790    0.0000 ca      1  GRA1        0.0000
   1771 C         175.6074   23.3970    0.0000 ca      1  GRA1        0.0000
   1772 C         176.8355   24.1060    0.0000 ca      1  GRA1        0.0000
   1773 C         179.2915   21.2700    0.0000 ca      1  GRA1        0.0000
   1774 C         178.0635   21.9790    0.0000 ca      1  GRA1        0.0000
   1775 C         178.0635   23.3970    0.0000 ca      1  GRA1        0.0000
   1776 C         179.2915   24.1060    0.0000 ca      1  GRA1        0.0000
   1777 C           0.0000   25.5240    0.0000 ca      1  GRA1        0.0000
   1778 C          -1.2280   26.2330    0.0000 ca      1  GRA1        0.0000
   1779 C          -1.2280   27.6510    0.0000 ca      1  GRA1        0.0000
   1780 C           0.0000   28.3600    0.0000 ca      1  GRA1        0.0000
   1781 C           2.4560   25.5240    0.0000 ca      1  GRA1        0.0000
   1782 C           1.2280   26.2330    0.0000 ca      1  GRA1        0.0000
   1783 C           1.2280   27.6510    0.0000 ca      1  GRA1        0.0000
   1784 C           2.4560   28.3600    0.0000 ca      1  GRA1        0.0000
   1785 C           4.9121   25.5240    0.0000 ca      1  GRA1        0.0000
   1786 C           3.6841   26.2330    0.0000 ca      1  GRA1        0.0000
   1787 C           3.6841   27.6510    0.0000 ca      1  GRA1        0.0000
   1788 C           4.9121   28.3600    0.0000 ca      1  GRA1        0.0000
   1789 C           7.3681   25.5240    0.0000 ca      1  GRA1        0.0000
   1790 C           6.1401   26.2330    0.0000 ca      1  GRA1        0.0000
   1791 C           6.1401   27.6510    0.0000 ca      1  GRA1        0.0000
   1792 C           7.3681   28.3600    0.0000 ca      1  GRA1        0.0000
   1793 C           9.8242   25.5240    0.0000 ca      1  GRA1        0.0000
   1794 C           8.5962   26.2330    0.0000 ca      1  GRA1        0.0000
   1795 C           8.5962   27.6510    0.0000 ca      1  GRA1        0.0000
   1796 C           9.8242   28.3600    0.0000 ca      1  GRA1        0.0000
   1797 C          12.2802   25.5240    0.0000 ca      1  GRA1        0.0000
   1798 C          11.0522   26.2330    0.0000 ca      1  GRA1        0.0000
   1799 C          11.0522   27.6510    0.0000 ca      1  GRA1        0.0000
   1800 C          12.2802   28.3600    0.0000 ca      1  GRA1        0.0000
   1801 C          14.7363   25.5240    0.0000 ca      1  GRA1        0.0000
   1802 C          13.5083   26.2330    0.0000 ca      1  GRA1        0.0000
   1803 C          13.5083   27.6510    0.0000 ca      1  GRA1        0.0000
   1804 C          14.7363   28.3600    0.0000 ca      1  GRA1        0.0000
   1805 C          17.1923   25.5240    0.0000 ca      1  GRA1        0.0000
   1806 C          15.9643   26.2330    0.0000 ca      1  GRA1        0.0000
   1807 C          15.9643   27.6510    0.0000 ca      1  GRA1        0.0000
   1808 C          17.1923   28.3600    0.0000 ca      1  GRA1        0.0000
   1809 C          19.6484   25.5240    0.0000 ca      1  GRA1        0.0000
   1810 C          18.4204   26.2330    0.0000 ca      1  GRA1        0.0000
   1811 C          18.4204   27.6510    0.0000 ca      1  GRA1        0.0000
   1812 C          19.6484   28.3600    0.0000 ca      1  GRA1        0.0000
   1813 C          22.1044   25.5240    0.0000 ca      1  GRA1        0.0000
   1814 C          20.8764   26.2330    0.0000 ca      1  GRA1        0.0000
   1815 C          20.8764   27.6510    0.0000 ca      1  GRA1        0.0000
   1816 C          22.1044   28.3600    0.0000 ca      1  GRA1        0.0000
   1817 C          24.5605   25.5240    0.0000 ca      1  GRA1        0.0000
   1818 C          23.3325   26.2330    0.0000 ca      1  GRA1        0.0000
   1819 C          23.3325   27.6510    0.0000 ca      1  GRA1        0.0000
   1820 C          24.5605   28.3600    0.0000 ca      1  GRA1        0.0000
   1821 C          27.0165   25.5240    0.0000 ca      1  GRA1        0.0000
   1822 C          25.7885   26.2330    0.0000 ca      1  GRA1        0.0000
   1823 C          25.7885   27.6510    0.0000 ca      1  GRA1        0.0000
   1824 C          27.0165   28.3600    0.0000 ca      1  GRA1        0.0000
   1825 C          29.4726   25.5240    0.0000 ca      1  GRA1        0.0000
   1826 C          28.2446   26.2330    0.0000 ca      1  GRA1        0.0000
   1827 C          28.2446   27.6510    0.0000 ca      1  GRA1        0.0000
   1828 C          29.4726   28.3600    0.0000 ca      1  GRA1        0.0000
   1829 C          31.9286   25.5240    0.0000 ca      1  GRA1        0.0000
   1830 C          30.7006   26.2330    0.0000 ca      1  GRA1        0.0000
   1831 C          30.7006   27.6510    0.0000 ca      1  GRA1        0.0000
   1832 C          31.9286   28.3600    0.0000 ca      1  GRA1        0.0000
   1833 C          34.3847   25.5240    0.0000 ca      1  GRA1        0.0000
   1834 C          33.1566   26.2330    0.0000 ca      1  GRA1        0.0000
   1835 C          33.1566   27.6510    0.0000 ca      1  GRA1        0.0000
   1836 C          34.3847   28.3600    0.0000 ca      1  GRA1        0.0000
   1837 C          36.8407   25.5240    0.0000 ca      1  GRA1        0.0000
   1838 C          35.6127   26.2330    0.0000 ca      1  GRA1        0.0000
   1839 C          35.6127   27.6510    0.0000 ca      1  GRA1        0.0000
   1840 C          36.8407   28.3600    0.0000 ca      1  GRA1        0.0000
   1841 C          39.2968   25.5240    0.0000 ca      1  GRA1        0.0000
   1842 C          38.0687   26.2330    0.0000 ca      1  GRA1        0.0000
   1843 C          38.0687   27.6510    0.0000 ca      1  GRA1        0.0000
   1844 C          39.2968   28.3600    0.0000 ca      1  GRA1        0.0000
   1845 C          41.7528   25.5240    0.0000 ca      1  GRA1        0.0000
   1846 C          40.5248   26.2330    0.0000 ca      1  GRA1        0.0000
   1847 C          40.5248   27.6510    0.0000 ca      1  GRA1        0.0000
   1848 C          41.7528   28.3600    0.0000 ca      1  GRA1        0.0000
   1849 C          44.2089   25.5240    0.0000 ca      1  GRA1        0.0000
   1850 C          42.9808   26.2330    0.0000 ca      1  GRA1        0.0000
   1851 C          42.9808   27.6510    0.0000 ca      1  GRA1        0.0000
   1852 C          44.2089   28.3600    0.0000 ca      1  GRA1        0.0000
   1853 C          46.6649   25.5240    0.0000 ca      1  GRA1        0.0000
   1854 C          45.4369   26.2330    0.0000 ca      1  GRA1        0.0000
   1855 C          45.4369   27.6510    0.0000 ca      1  GRA1        0.0000
   1856 C          46.6649   28.3600    0.0000 ca      1  GRA1        0.0000
   1857 C          49.1210   25.5240    0.0000 ca      1  GRA1        0.0000
   1858 C          47.8929   26.2330    0.0000 ca      1  GRA1        0.0000
   1859 C          47.8929   27.6510    0.0000 ca      1  GRA1        0.0000
   1860 C          49.1210   28.3600    0.0000 ca      1  GRA1        0.0000
   1861 C          51.5770   25.5240    0.0000 ca      1  GRA1        0.0000
   1862 C          50.3490   26.2330    0.0000 ca      1  GRA1        0.0000
   1863 C          50.3490   27.6510    0.0000 ca      1  GRA1        0.0000
   1864 C          51.5770   28.3600    0.0000 ca      1  GRA1        0.0000
   1865 C          54.0331   25.5240    0.0000 ca      1  GRA1        0.0000
   1866 C          52.8050   26.2330    0.0000 ca      1  GRA1        0.0000
   1867 C          52.8050   27.6510    0.0000 ca      1  GRA1        0.0000
   1868 C          54.0331   28.3600    0.0000 ca      1  GRA1        0.0000
   1869 C          56.4891   25.5240    0.0000 ca      1  GRA1        0.0000
   1870 C          55.2611   26.2330    0.0000 ca      1  GRA1        0.0000
   1871 C          55.2611   27.6510    0.0000 ca      1  GRA1        0.0000
   1872 C          56.4891   28.3600    0.0000 ca      1  GRA1        0.0000
   1873 C          58.9452   25.5240    0.0000 ca      1  GRA1        0.0000
   1874 C          57.7171   26.2330    0.0000 ca      1  GRA1        0.0000
   1875 C          57.7171   27.6510    0.0000 ca      1  GRA1        0.0000
   1876 C          58.9452   28.3600    0.0000 ca      1  GRA1        0.0000
   1877 C          61.4012   25.5240    0.0000 ca      1  GRA1        0.0000
   1878 C          60.1732   26.2330    0.0000 ca      1  GRA1        0.0000
   1879 C          60.1732   27.6510    0.0000 ca      1  GRA1        0.0000
   1880 C          61.4012   28.3600    0.0000 ca      1  GRA1        0.0000
   1881 C          63.8573   25.5240    0.0000 ca      1  GRA1        0.0000
   1882 C          62.6292   26.2330    0.0000 ca      1  GRA1        0.0000
   1883 C          62.6292   27.6510    0.0000 ca      1  GRA1        0.0000
   1884 C          63.8573   28.3600    0.0000 ca      1  GRA1        0.0000
   1885 C          66.3133   25.5240    0.0000 ca      1  GRA1        0.0000
   1886 C          65.0853   26.2330    0.0000 ca      1  GRA1        0.0000
   1887 C          65.0853   27.6510    0.0000 ca      1  GRA1        0.0000
   1888 C          66.3133   28.3600    0.0000 ca      1  GRA1        0.0000
   1889 C          68.7693   25.5240    0.0000 ca      1  GRA1        0.0000
   1890 C          67.5413   26.2330    0.0000 ca      1  GRA1        0.0000
   1891 C          67.5413   27.6510    0.0000 ca      1  GRA1        0.0000
   1892 C          68.7693   28.3600    0.0000 ca      1  GRA1        0.0000
   1893 C          71.2254   25.5240    0.0000 ca      1  GRA1        0.0000
   1894 C          69.9974   26.2330    0.0000 ca      1  GRA1        0.0000
   1895 C          69.9974   27.6510    0.0000 ca      1  GRA1        0.0000
   1896 C          71.2254   28.3600    0.0000 ca      1  GRA1        0.0000
   1897 C          73.6814   25.5240    0.0000 ca      1  GRA1        0.0000
   1898 C          72.4534   26.2330    0.0000 ca      1  GRA1        0.0000
   1899 C          72.4534   27.6510    0.0000 ca      1  GRA1        0.0000
   1900 C          73.6814   28.3600    0.0000 ca      1  GRA1        0.0000
   1901 C          76.1375   25.5240    0.0000 ca      1  GRA1        0.0000
   1902 C          74.9095   26.2330    0.0000 ca      1  GRA1        0.0000
   1903 C          74.9095   27.6510    0.0000 ca      1  GRA1        0.0000
   1904 C          76.1375   28.3600    0.0000 ca      1  GRA1        0.0000
   1905 C          78.5935   25.5240    0.0000 ca      1  GRA1        0.0000
   1906 C          77.3655   26.2330    0.0000 ca      1  GRA1        0.0000
   1907 C          77.3655   27.6510    0.0000 ca      1  GRA1        0.0000
   1908 C          78.5935   28.3600    0.0000 ca      1  GRA1        0.0000
   1909 C          81.0496   25.5240    0.0000 ca      1  GRA1        0.0000
   1910 C          79.8216   26.2330    0.0000 ca      1  GRA1        0.0000
   1911 C          79.8216   27.6510    0.0000 ca      1  GRA1        0.0000
   1912 C          81.0496   28.3600    0.0000 ca      1  GRA1        0.0000
   1913 C          83.5056   25.5240    0.0000 ca      1  GRA1        0.0000
   1914 C          82.2776   26.2330    0.0000 ca      1  GRA1        0.0000
   1915 C          82.2776   27.6510    0.0000 ca      1  GRA1        0.0000
   1916 C          83.5056   28.3600    0.0000 ca      1  GRA1        0.0000
   1917 C          85.9617   25.5240    0.0000 ca      1  GRA1        0.0000
   1918 C          84.7337   26.2330    0.0000 ca      1  GRA1        0.0000
   1919 C          84.7337   27.6510    0.0000 ca      1  GRA1        0.0000
   1920 C          85.9617   28.3600    0.0000 ca      1  GRA1        0.0000
   1921 C          88.4177   25.5240    0.0000 ca      1  GRA1        0.0000
   1922 C          87.1897   26.2330    0.0000 ca      1  GRA1        0.0000
   1923 C          87.1897   27.6510    0.0000 ca      1  GRA1        0.0000
   1924 C          88.4177   28.3600    0.0000 ca      1  GRA1        0.0000
   1925 C          90.8738   25.5240    0.0000 ca      1  GRA1        0.0000
   1926 C          89.6458   26.2330    0.0000 ca      1  GRA1        0.0000
   1927 C          89.6458   27.6510    0.0000 ca      1  GRA1        0.0000
   1928 C          90.8738   28.3600    0.0000 ca      1  GRA1        0.0000
   1929 C          93.3298   25.5240    0.0000 ca      1  GRA1        0.0000
   1930 C          92.1018   26.2330    0.0000 ca      1  GRA1        0.0000
   1931 C          92.1018   27.6510    0.0000 ca      1  GRA1        0.0000
   1932 C          93.3298   28.3600    0.0000 ca      1  GRA1        0.0000
   1933 C          95.7859   25.5240    0.0000 ca      1  GRA1        0.0000
   1934 C          94.5578   26.2330    0.0000 ca      1  GRA1        0.0000
   1935 C          94.5578   27.6510    0.0000 ca      1  GRA1        0.0000
   1936 C          95.7859   28.3600    0.0000 ca      1  GRA1        0.0000
   1937 C          98.2419   25.5240    0.0000 ca      1  GRA1        0.0000
   1938 C          97.0139   26.2330    0.0000 ca      1  GRA1        0.0000
   1939 C          97.0139   27.6510    0.0000 ca      1  GRA1        0.0000
   1940 C          98.2419   28.3600    0.0000 ca      1  GRA1        0.0000
   1941 C         100.6980   25.5240    0.0000 ca      1  GRA1        0.0000
   1942 C          99.4699   26.2330    0.0000 ca      1  GRA1        0.0000
   1943 C          99.4699   27.6510    0.0000 ca      1  GRA1        0.0000
   1944 C         100.6980   28.3600    0.0000 ca      1  GRA1        0.0000
   1945 C         103.1540   25.5240    0.0000 ca      1  GRA1        0.0000
   1946 C         101.9260   26.2330    0.0000 ca      1  GRA1        0.0000
   1947 C         101.9260   27.6510    0.0000 ca      1  GRA1        0.0000
   1948 C         103.1540   28.3600    0.0000 ca      1  GRA1        0.0000
   1949 C         105.6101   25.5240    0.0000 ca      1  GRA1        0.0000
   1950 C         104.3820   26.2330    0.0000 ca      1  GRA1        0.0000
   1951 C         104.3820   27.6510    0.0000 ca      1  GRA1        0.0000
   1952 C         105.6101   28.3600    0.0000 ca      1  GRA1        0.0000
   1953 C         108.0661   25.5240    0.0000 ca      1  GRA1        0.0000
   1954 C         106.8381   26.2330    0.0000 ca      1  GRA1        0.0000
   1955 C         106.8381   27.6510    0.0000 ca      1  GRA1        0.0000
   1956 C         108.0661   28.3600    0.0000 ca      1  GRA1        0.0000
   1957 C         110.5222   25.5240    0.0000 ca      1  GRA1        0.0000
   1958 C         109.2941   26.2330    0.0000 ca      1  GRA1        0.0000
   1959 C         109.2941   27.6510    0.0000 ca      1  GRA1        0.0000
   1960 C         110.5222   28.3600    0.0000 ca      1  GRA1        0.0000
   1961 C         112.9782   25.5240    0.0000 ca      1  GRA1        0.0000
   1962 C         111.7502   26.2330    0.0000 ca      1  GRA1        0.0000
   1963 C         111.7502   27.6510    0.0000 ca      1  GRA1        0.0000
   1964 C         112.9782   28.3600    0.0000 ca      1  GRA1        0.0000
   1965 C         115.4343   25.5240    0.0000 ca      1  GRA1        0.0000
   1966 C         114.2062   26.2330    0.0000 ca      1  GRA1        0.0000
   1967 C         114.2062   27.6510    0.0000 ca      1  GRA1        0.0000
   1968 C         115.4343   28.3600    0.0000 ca      1  GRA1        0.0000
   1969 C         117.8903   25.5240    0.0000 ca      1  GRA1        0.0000
   1970 C         116.6623   26.2330    0.0000 ca      1  GRA1        0.0000
   1971 C         116.6623   27.6510    0.0000 ca      1  GRA1        0.0000
   1972 C         117.8903   28.3600    0.0000 ca      1  GRA1        0.0000
   1973 C         120.3464   25.5240    0.0000 ca      1  GRA1        0.0000
   1974 C         119.1183   26.2330    0.0000 ca      1  GRA1        0.0000
   1975 C         119.1183   27.6510    0.0000 ca      1  GRA1        0.0000
   1976 C         120.3464   28.3600    0.0000 ca      1  GRA1        0.0000
   1977 C         122.8024   25.5240    0.0000 ca      1  GRA1        0.0000
   1978 C         121.5744   26.2330    0.0000 ca      1  GRA1        0.0000
   1979 C         121.5744   27.6510    0.0000 ca      1  GRA1        0.0000
   1980 C         122.8024   28.3600    0.0000 ca      1  GRA1        0.0000
   1981 C         125.2585   25.5240    0.0000 ca      1  GRA1        0.0000
   1982 C         124.0304   26.2330    0.0000 ca      1  GRA1        0.0000
   1983 C         124.0304   27.6510    0.0000 ca      1  GRA1        0.0000
   1984 C         125.2585   28.3600    0.0000 ca      1  GRA1        0.0000
   1985 C         127.7145   25.5240    0.0000 ca      1  GRA1        0.0000
   1986 C         126.4865   26.2330    0.0000 ca      1  GRA1        0.0000
   1987 C         126.4865   27.6510    0.0000 ca      1  GRA1        0.0000
   1988 C         127.7145   28.3600    0.0000 ca      1  GRA1        0.0000
   1989 C         130.1705   25.5240    0.0000 ca      1  GRA1        0.0000
   1990 C         128.9425   26.2330    0.0000 ca      1  GRA1        0.0000
   1991 C         128.9425   27.6510    0.0000 ca      1  GRA1        0.0000
   1992 C         130.1705   28.3600    0.0000 ca      1  GRA1        0.0000
   1993 C         132.6266   25.5240    0.0000 ca      1  GRA1        0.0000
   1994 C         131.3986   26.2330    0.0000 ca      1  GRA1        0.0000
   1995 C         131.3986   27.6510    0.0000 ca      1  GRA1        0.0000
   1996 C         132.6266   28.3600    0.0000 ca      1  GRA1        0.0000
   1997 C         135.0826   25.5240    0.0000 ca      1  GRA1        0.0000
   1998 C         133.8546   26.2330    0.0000 ca      1  GRA1        0.0000
   1999 C         133.8546   27.6510    0.0000 ca      1  GRA1        0.0000
   2000 C         135.0826   28.3600    0.0000 ca      1  GRA1        0.0000
   2001 C         137.5387   25.5240    0.0000 ca      1  GRA1        0.0000
   2002 C         136.3107   26.2330    0.0000 ca      1  GRA1        0.0000
   2003 C         136.3107   27.6510    0.0000 ca      1  GRA1        0.0000
   2004 C         137.5387   28.3600    0.0000 ca      1  GRA1        0.0000
   2005 C         139.9947   25.5240    0.0000 ca      1  GRA1        0.0000
   2006 C         138.7667   26.2330    0.0000 ca      1  GRA1        0.0000
   2007 C         138.7667   27.6510    0.0000 ca      1  GRA1        0.0000
   2008 C         139.9947   28.3600    0.0000 ca      1  GRA1        0.0000
   2009 C         142.4508   25.5240    0.0000 ca      1  GRA1        0.0000
   2010 C         141.2228   26.2330    0.0000 ca      1  GRA1        0.0000
   2011 C         141.2228   27.6510    0.0000 ca      1  GRA1        0.0000
   2012 C         142.4508   28.3600    0.0000 ca      1  GRA1        0.0000
   2013 C         144.9068   25.5240    0.0000 ca      1  GRA1        0.0000
   2014 C         143.6788   26.2330    0.0000 ca      1  GRA1        0.0000
   2015 C         143.6788   27.6510    0.0000 ca      1  GRA1        0.0000
   2016 C         144.9068   28.3600    0.0000 ca      1  GRA1        0.0000
   2017 C         147.3629   25.5240    0.0000 ca      1  GRA1        0.0000
   2018 C         146.1349   26.2330    0.0000 ca      1  GRA1        0.0000
   2019 C         146.1349   27.6510    0.0000 ca      1  GRA1        0.0000
   2020 C         147.3629   28.3600    0.0000 ca      1  GRA1        0.0000
   2021 C         149.8189   25.5240    0.0000 ca      1  GRA1        0.0000
   2022 C         148.5909   26.2330    0.0000 ca      1  GRA1        0.0000
   2023 C         148.5909   27.6510    0.0000 ca      1  GRA1        0.0000
   2024 C         149.8189   28.3600    0.0000 ca      1  GRA1        0.0000
   2025 C         152.2750   25.5240    0.0000 ca      1  GRA1        0.0000
   2026 C         151.0470   26.2330    0.0000 ca      1  GRA1        0.0000
   2027 C         151.0470   27.6510    0.0000 ca      1  GRA1        0.0000
   2028 C         152.2750   28.3600    0.0000 ca      1  GRA1        0.0000
   2029 C         154.7310   25.5240    0.0000 ca      1  GRA1        0.0000
   2030 C         153.5030   26.2330    0.0000 ca      1  GRA1        0.0000
   2031 C         153.5030   27.6510    0.0000 ca      1  GRA1        0.0000
   2032 C         154.7310   28.3600    0.0000 ca      1  GRA1        0.0000
   2033 C         157.1871   25.5240    0.0000 ca      1  GRA1        0.0000
   2034 C         155.9590   26.2330    0.0000 ca      1  GRA1        0.0000
   2035 C         155.9590   27.6510    0.0000 ca      1  GRA1        0.0000
   2036 C         157.1871   28.3600    0.0000 ca      1  GRA1        0.0000
   2037 C         159.6431   25.5240    0.0000 ca      1  GRA1        0.0000
   2038 C         158.4151   26.2330    0.0000 ca      1  GRA1        0.0000
   2039 C         158.4151   27.6510    0.0000 ca      1  GRA1        0.0000
   2040 C         159.6431   28.3600    0.0000 ca      1  GRA1        0.0000
   2041 C         162.0992   25.5240    0.0000 ca      1  GRA1        0.0000
   2042 C         160.8711   26.2330    0.0000 ca      1  GRA1        0.0000
   2043 C         160.8711   27.6510    0.0000 ca      1  GRA1        0.0000
   2044 C         162.0992   28.3600    0.0000 ca      1  GRA1        0.0000
   2045 C         164.5552   25.5240    0.0000 ca      1  GRA1        0.0000
   2046 C         163.3272   26.2330    0.0000 ca      1  GRA1        0.0000
   2047 C         163.3272   27.6510    0.0000 ca      1  GRA1        0.0000
   2048 C         164.5552   28.3600    0.0000 ca      1  GRA1        0.0000
   2049 C         167.0113   25.5240    0.0000 ca      1  GRA1        0.0000
   2050 C         165.7832   26.2330    0.0000 ca      1  GRA1        0.0000
   2051 C         165.7832   27.6510    0.0000 ca      1  GRA1        0.0000
   2052 C         167.0113   28.3600    0.0000 ca      1  GRA1        0.0000
   2053 C         169.4673   25.5240    0.0000 ca      1  GRA1        0.0000
   2054 C         168.2393   26.2330    0.0000 ca      1  GRA1        0.0000
   2055 C         168.2393   27.6510    0.0000 ca      1  GRA1        0.0000
   2056 C         169.4673   28.3600    0.0000 ca      1  GRA1        0.0000
   2057 C         171.9234   25.5240    0.0000 ca      1  GRA1        0.0000
   2058 C         170.6953   26.2330    0.0000 ca      1  GRA1        0.0000
   2059 C         171.9234   28.3600    0.0000 ca      1  GRA1        0.0000
   2060 C         174.3794   25.5240    0.0000 ca      1  GRA1        0.0000
   2061 C         173.1514   26.2330    0.0000 ca      1  GRA1        0.0000
   2062 C         173.1514   27.6510    0.0000 ca      1  GRA1        0.0000
   2063 C         174.3794   28.3600    0.0000 ca      1  GRA1        0.0000
   2064 C         176.8355   25.5240    0.0000 ca      1  GRA1        0.0000
   2065 C         175.6074   26.2330    0.0000 ca      1  GRA1        0.0000
   2066 C         175.6074   27.6510    0.0000 ca      1  GRA1        0.0000
   2067 C         176.8355   28.3600    0.0000 ca      1  GRA1        0.0000
   2068 C         179.2915   25.5240    0.0000 ca      1  GRA1        0.0000
   2069 C         178.0635   26.2330    0.0000 ca      1  GRA1        0.0000
   2070 C         178.0635   27.6510    0.0000 ca      1  GRA1        0.0000
   2071 C         179.2915   28.3600    0.0000 ca      1  GRA1        0.0000
   2072 C           0.0000   29.7780    0.0000 ca      1  GRA1        0.0000
   2073 C          -1.2280   30.4870    0.0000 ca      1  GRA1        0.0000
   2074 C          -1.2280   31.9050    0.0000 ca      1  GRA1        0.0000
   2075 C           0.0000   32.6140    0.0000 ca      1  GRA1        0.0000
   2076 C           2.4560   29.7780    0.0000 ca      1  GRA1        0.0000
   2077 C           1.2280   30.4870    0.0000 ca      1  GRA1        0.0000
   2078 C           1.2280   31.9050    0.0000 ca      1  GRA1        0.0000
   2079 C           2.4560   32.6140    0.0000 ca      1  GRA1        0.0000
   2080 C           4.9121   29.7780    0.0000 ca      1  GRA1        0.0000
   2081 C           3.6841   30.4870    0.0000 ca      1  GRA1        0.0000
   2082 C           3.6841   31.9050    0.0000 ca      1  GRA1        0.0000
   2083 C           4.9121   32.6140    0.0000 ca      1  GRA1        0.0000
   2084 C           7.3681   29.7780    0.0000 ca      1  GRA1        0.0000
   2085 C           6.1401   30.4870    0.0000 ca      1  GRA1        0.0000
   2086 C           6.1401   31.9050    0.0000 ca      1  GRA1        0.0000
   2087 C           7.3681   32.6140    0.0000 ca      1  GRA1        0.0000
   2088 C           9.8242   29.7780    0.0000 ca      1  GRA1        0.0000
   2089 C           8.5962   30.4870    0.0000 ca      1  GRA1        0.0000
   2090 C           8.5962   31.9050    0.0000 ca      1  GRA1        0.0000
   2091 C           9.8242   32.6140    0.0000 ca      1  GRA1        0.0000
   2092 C          12.2802   29.7780    0.0000 ca      1  GRA1        0.0000
   2093 C          11.0522   30.4870    0.0000 ca      1  GRA1        0.0000
   2094 C          11.0522   31.9050    0.0000 ca      1  GRA1        0.0000
   2095 C          12.2802   32.6140    0.0000 ca      1  GRA1        0.0000
   2096 C          14.7363   29.7780    0.0000 ca      1  GRA1        0.0000
   2097 C          13.5083   30.4870    0.0000 ca      1  GRA1        0.0000
   2098 C          13.5083   31.9050    0.0000 ca      1  GRA1        0.0000
   2099 C          14.7363   32.6140    0.0000 ca      1  GRA1        0.0000
   2100 C          17.1923   29.7780    0.0000 ca      1  GRA1        0.0000
   2101 C          15.9643   30.4870    0.0000 ca      1  GRA1        0.0000
   2102 C          15.9643   31.9050    0.0000 ca      1  GRA1        0.0000
   2103 C          17.1923   32.6140    0.0000 ca      1  GRA1        0.0000
   2104 C          19.6484   29.7780    0.0000 ca      1  GRA1        0.0000
   2105 C          18.4204   30.4870    0.0000 ca      1  GRA1        0.0000
   2106 C          18.4204   31.9050    0.0000 ca      1  GRA1        0.0000
   2107 C          19.6484   32.6140    0.0000 ca      1  GRA1        0.0000
   2108 C          22.1044   29.7780    0.0000 ca      1  GRA1        0.0000
   2109 C          20.8764   30.4870    0.0000 ca      1  GRA1        0.0000
   2110 C          20.8764   31.9050    0.0000 ca      1  GRA1        0.0000
   2111 C          22.1044   32.6140    0.0000 ca      1  GRA1        0.0000
   2112 C          24.5605   29.7780    0.0000 ca      1  GRA1        0.0000
   2113 C          23.3325   30.4870    0.0000 ca      1  GRA1        0.0000
   2114 C          23.3325   31.9050    0.0000 ca      1  GRA1        0.0000
   2115 C          24.5605   32.6140    0.0000 ca      1  GRA1        0.0000
   2116 C          27.0165   29.7780    0.0000 ca      1  GRA1        0.0000
   2117 C          25.7885   30.4870    0.0000 ca      1  GRA1        0.0000
   2118 C          25.7885   31.9050    0.0000 ca      1  GRA1        0.0000
   2119 C          27.0165   32.6140    0.0000 ca      1  GRA1        0.0000
   2120 C          29.4726   29.7780    0.0000 ca      1  GRA1        0.0000
   2121 C          28.2446   30.4870    0.0000 ca      1  GRA1        0.0000
   2122 C          28.2446   31.9050    0.0000 ca      1  GRA1        0.0000
   2123 C          29.4726   32.6140    0.0000 ca      1  GRA1        0.0000
   2124 C          31.9286   29.7780    0.0000 ca      1  GRA1        0.0000
   2125 C          30.7006   30.4870    0.0000 ca      1  GRA1        0.0000
   2126 C          30.7006   31.9050    0.0000 ca      1  GRA1        0.0000
   2127 C          31.9286   32.6140    0.0000 ca      1  GRA1        0.0000
   2128 C          34.3847   29.7780    0.0000 ca      1  GRA1        0.0000
   2129 C          33.1566   30.4870    0.0000 ca      1  GRA1        0.0000
   2130 C          33.1566   31.9050    0.0000 ca      1  GRA1        0.0000
   2131 C          34.3847   32.6140    0.0000 ca      1  GRA1        0.0000
   2132 C          36.8407   29.7780    0.0000 ca      1  GRA1        0.0000
   2133 C          35.6127   30.4870    0.0000 ca      1  GRA1        0.0000
   2134 C          35.6127   31.9050    0.0000 ca      1  GRA1        0.0000
   2135 C          36.8407   32.6140    0.0000 ca      1  GRA1        0.0000
   2136 C          39.2968   29.7780    0.0000 ca      1  GRA1        0.0000
   2137 C          38.0687   30.4870    0.0000 ca      1  GRA1        0.0000
   2138 C          38.0687   31.9050    0.0000 ca      1  GRA1        0.0000
   2139 C          39.2968   32.6140    0.0000 ca      1  GRA1        0.0000
   2140 C          41.7528   29.7780    0.0000 ca      1  GRA1        0.0000
   2141 C          40.5248   30.4870    0.0000 ca      1  GRA1        0.0000
   2142 C          40.5248   31.9050    0.0000 ca      1  GRA1        0.0000
   2143 C          41.7528   32.6140    0.0000 ca      1  GRA1        0.0000
   2144 C          44.2089   29.7780    0.0000 ca      1  GRA1        0.0000
   2145 C          42.9808   30.4870    0.0000 ca      1  GRA1        0.0000
   2146 C          42.9808   31.9050    0.0000 ca      1  GRA1        0.0000
   2147 C          44.2089   32.6140    0.0000 ca      1  GRA1        0.0000
   2148 C          46.6649   29.7780    0.0000 ca      1  GRA1        0.0000
   2149 C          45.4369   30.4870    0.0000 ca      1  GRA1        0.0000
   2150 C          45.4369   31.9050    0.0000 ca      1  GRA1        0.0000
   2151 C          46.6649   32.6140    0.0000 ca      1  GRA1        0.0000
   2152 C          49.1210   29.7780    0.0000 ca      1  GRA1        0.0000
   2153 C          47.8929   30.4870    0.0000 ca      1  GRA1        0.0000
   2154 C          47.8929   31.9050    0.0000 ca      1  GRA1        0.0000
   2155 C          49.1210   32.6140    0.0000 ca      1  GRA1        0.0000
   2156 C          51.5770   29.7780    0.0000 ca      1  GRA1        0.0000
   2157 C          50.3490   30.4870    0.0000 ca      1  GRA1        0.0000
   2158 C          50.3490   31.9050    0.0000 ca      1  GRA1        0.0000
   2159 C          51.5770   32.6140    0.0000 ca      1  GRA1        0.0000
   2160 C          54.0331   29.7780    0.0000 ca      1  GRA1        0.0000
   2161 C          52.8050   30.4870    0.0000 ca      1  GRA1        0.0000
   2162 C          52.8050   31.9050    0.0000 ca      1  GRA1        0.0000
   2163 C          54.0331   32.6140    0.0000 ca      1  GRA1        0.0000
   2164 C          56.4891   29.7780    0.0000 ca      1  GRA1        0.0000
   2165 C          55.2611   30.4870    0.0000 ca      1  GRA1        0.0000
   2166 C          55.2611   31.9050    0.0000 ca      1  GRA1        0.0000
   2167 C          56.4891   32.6140    0.0000 ca      1  GRA1        0.0000
   2168 C          58.9452   29.7780    0.0000 ca      1  GRA1        0.0000
   2169 C          57.7171   30.4870    0.0000 ca      1  GRA1        0.0000
   2170 C          57.7171   31.9050    0.0000 ca      1  GRA1        0.0000
   2171 C          58.9452   32.6140    0.0000 ca      1  GRA1        0.0000
   2172 C          61.4012   29.7780    0.0000 ca      1  GRA1        0.0000
   2173 C          60.1732   30.4870    0.0000 ca      1  GRA1        0.0000
   2174 C          60.1732   31.9050    0.0000 ca      1  GRA1        0.0000
   2175 C          61.4012   32.6140    0.0000 ca      1  GRA1        0.0000
   2176 C          63.8573   29.7780    0.0000 ca      1  GRA1        0.0000
   2177 C          62.6292   30.4870    0.0000 ca      1  GRA1        0.0000
   2178 C          62.6292   31.9050    0.0000 ca      1  GRA1        0.0000
   2179 C          63.8573   32.6140    0.0000 ca      1  GRA1        0.0000
   2180 C          66.3133   29.7780    0.0000 ca      1  GRA1        0.0000
   2181 C          65.0853   30.4870    0.0000 ca      1  GRA1        0.0000
   2182 C          65.0853   31.9050    0.0000 ca      1  GRA1        0.0000
   2183 C          66.3133   32.6140    0.0000 ca      1  GRA1        0.0000
   2184 C          68.7693   29.7780    0.0000 ca      1  GRA1        0.0000
   2185 C          67.5413   30.4870    0.0000 ca      1  GRA1        0.0000
   2186 C          67.5413   31.9050    0.0000 ca      1  GRA1        0.0000
   2187 C          68.7693   32.6140    0.0000 ca      1  GRA1        0.0000
   2188 C          71.2254   29.7780    0.0000 ca      1  GRA1        0.0000
   2189 C          69.9974   30.4870    0.0000 ca      1  GRA1        0.0000
   2190 C          69.9974   31.9050    0.0000 ca      1  GRA1        0.0000
   2191 C          71.2254   32.6140    0.0000 ca      1  GRA1        0.0000
   2192 C          73.6814   29.7780    0.0000 ca      1  GRA1        0.0000
   2193 C          72.4534   30.4870    0.0000 ca      1  GRA1        0.0000
   2194 C          72.4534   31.9050    0.0000 ca      1  GRA1        0.0000
   2195 C          73.6814   32.6140    0.0000 ca      1  GRA1        0.0000
   2196 C          76.1375   29.7780    0.0000 ca      1  GRA1        0.0000
   2197 C          74.9095   30.4870    0.0000 ca      1  GRA1        0.0000
   2198 C          74.9095   31.9050    0.0000 ca      1  GRA1        0.0000
   2199 C          76.1375   32.6140    0.0000 ca      1  GRA1        0.0000
   2200 C          78.5935   29.7780    0.0000 ca      1  GRA1        0.0000
   2201 C          77.3655   30.4870    0.0000 ca      1  GRA1        0.0000
   2202 C          77.3655   31.9050    0.0000 ca      1  GRA1        0.0000
   2203 C          78.5935   32.6140    0.0000 ca      1  GRA1        0.0000
   2204 C          81.0496   29.7780    0.0000 ca      1  GRA1        0.0000
   2205 C          79.8216   30.4870    0.0000 ca      1  GRA1        0.0000
   2206 C          79.8216   31.9050    0.0000 ca      1  GRA1        0.0000
   2207 C          81.0496   32.6140    0.0000 ca      1  GRA1        0.0000
   2208 C          83.5056   29.7780    0.0000 ca      1  GRA1        0.0000
   2209 C          82.2776   30.4870    0.0000 ca      1  GRA1        0.0000
   2210 C          82.2776   31.9050    0.0000 ca      1  GRA1        0.0000
   2211 C          83.5056   32.6140    0.0000 ca      1  GRA1        0.0000
   2212 C          85.9617   29.7780    0.0000 ca      1  GRA1        0.0000
   2213 C          84.7337   30.4870    0.0000 ca      1  GRA1        0.0000
   2214 C          84.7337   31.9050    0.0000 ca      1  GRA1        0.0000
   2215 C          85.9617   32.6140    0.0000 ca      1  GRA1        0.0000
   2216 C          88.4177   29.7780    0.0000 ca      1  GRA1        0.0000
   2217 C          87.1897   30.4870    0.0000 ca      1  GRA1        0.0000
   2218 C          87.1897   31.9050    0.0000 ca      1  GRA1        0.0000
   2219 C          88.4177   32.6140    0.0000 ca      1  GRA1        0.0000
   2220 C          90.8738   29.7780    0.0000 ca      1  GRA1        0.0000
   2221 C          89.6458   30.4870    0.0000 ca      1  GRA1        0.0000
   2222 C          89.6458   31.9050    0.0000 ca      1  GRA1        0.0000
   2223 C          90.8738   32.6140    0.0000 ca      1  GRA1        0.0000
   2224 C          93.3298   29.7780    0.0000 ca      1  GRA1        0.0000
   2225 C          92.1018   30.4870    0.0000 ca      1  GRA1        0.0000
   2226 C          92.1018   31.9050    0.0000 ca      1  GRA1        0.0000
   2227 C          93.3298   32.6140    0.0000 ca      1  GRA1        0.0000
   2228 C          95.7859   29.7780    0.0000 ca      1  GRA1        0.0000
   2229 C          94.5578   30.4870    0.0000 ca      1  GRA1        0.0000
   2230 C          94.5578   31.9050    0.0000 ca      1  GRA1        0.0000
   2231 C          95.7859   32.6140    0.0000 ca      1  GRA1        0.0000
   2232 C          98.2419   29.7780    0.0000 ca      1  GRA1        0.0000
   2233 C          97.0139   30.4870    0.0000 ca      1  GRA1        0.0000
   2234 C          97.0139   31.9050    0.0000 ca      1  GRA1        0.0000
   2235 C          98.2419   32.6140    0.0000 ca      1  GRA1        0.0000
   2236 C         100.6980   29.7780    0.0000 ca      1  GRA1        0.0000
   2237 C          99.4699   30.4870    0.0000 ca      1  GRA1        0.0000
   2238 C          99.4699   31.9050    0.0000 ca      1  GRA1        0.0000
   2239 C         100.6980   32.6140    0.0000 ca      1  GRA1        0.0000
   2240 C         103.1540   29.7780    0.0000 ca      1  GRA1        0.0000
   2241 C         101.9260   30.4870    0.0000 ca      1  GRA1        0.0000
   2242 C         101.9260   31.9050    0.0000 ca      1  GRA1        0.0000
   2243 C         103.1540   32.6140    0.0000 ca      1  GRA1        0.0000
   2244 C         105.6101   29.7780    0.0000 ca      1  GRA1        0.0000
   2245 C         104.3820   30.4870    0.0000 ca      1  GRA1        0.0000
   2246 C         104.3820   31.9050    0.0000 ca      1  GRA1        0.0000
   2247 C         105.6101   32.6140    0.0000 ca      1  GRA1        0.0000
   2248 C         108.0661   29.7780    0.0000 ca      1  GRA1        0.0000
   2249 C         106.8381   30.4870    0.0000 ca      1  GRA1        0.0000
   2250 C         106.8381   31.9050    0.0000 ca      1  GRA1        0.0000
   2251 C         108.0661   32.6140    0.0000 ca      1  GRA1        0.0000
   2252 C         110.5222   29.7780    0.0000 ca      1  GRA1        0.0000
   2253 C         109.2941   30.4870    0.0000 ca      1  GRA1        0.0000
   2254 C         109.2941   31.9050    0.0000 ca      1  GRA1        0.0000
   2255 C         110.5222   32.6140    0.0000 ca      1  GRA1        0.0000
   2256 C         112.9782   29.7780    0.0000 ca      1  GRA1        0.0000
   2257 C         111.7502   30.4870    0.0000 ca      1  GRA1        0.0000
   2258 C         111.7502   31.9050    0.0000 ca      1  GRA1        0.0000
   2259 C         112.9782   32.6140    0.0000 ca      1  GRA1        0.0000
   2260 C         115.4343   29.7780    0.0000 ca      1  GRA1        0.0000
   2261 C         114.2062   30.4870    0.0000 ca      1  GRA1        0.0000
   2262 C         114.2062   31.9050    0.0000 ca      1  GRA1        0.0000
   2263 C         115.4343   32.6140    0.0000 ca      1  GRA1        0.0000
   2264 C         117.8903   29.7780    0.0000 ca      1  GRA1        0.0000
   2265 C         116.6623   30.4870    0.0000 ca      1  GRA1        0.0000
   2266 C         116.6623   31.9050    0.0000 ca      1  GRA1        0.0000
   2267 C         117.8903   32.6140    0.0000 ca      1  GRA1        0.0000
   2268 C         120.3464   29.7780    0.0000 ca      1  GRA1        0.0000
   2269 C         119.1183   30.4870    0.0000 ca      1  GRA1        0.0000
   2270 C         119.1183   31.9050    0.0000 ca      1  GRA1        0.0000
   2271 C         120.3464   32.6140    0.0000 ca      1  GRA1        0.0000
   2272 C         122.8024   29.7780    0.0000 ca      1  GRA1        0.0000
   2273 C         121.5744   30.4870    0.0000 ca      1  GRA1        0.0000
   2274 C         121.5744   31.9050    0.0000 ca      1  GRA1        0.0000
   2275 C         122.8024   32.6140    0.0000 ca      1  GRA1        0.0000
   2276 C         125.2585   29.7780    0.0000 ca      1  GRA1        0.0000
   2277 C         124.0304   30.4870    0.0000 ca      1  GRA1        0.0000
   2278 C         124.0304   31.9050    0.0000 ca      1  GRA1        0.0000
   2279 C         125.2585   32.6140    0.0000 ca      1  GRA1        0.0000
   2280 C         127.7145   29.7780    0.0000 ca      1  GRA1        0.0000
   2281 C         126.4865   30.4870    0.0000 ca      1  GRA1        0.0000
   2282 C         126.4865   31.9050    0.0000 ca      1  GRA1        0.0000
   2283 C         127.7145   32.6140    0.0000 ca      1  GRA1        0.0000
   2284 C         130.1705   29.7780    0.0000 ca      1  GRA1        0.0000
   2285 C         128.9425   30.4870    0.0000 ca      1  GRA1        0.0000
   2286 C         128.9425   31.9050    0.0000 ca      1  GRA1        0.0000
   2287 C         130.1705   32.6140    0.0000 ca      1  GRA1        0.0000
   2288 C         132.6266   29.7780    0.0000 ca      1  GRA1        0.0000
   2289 C         131.3986   30.4870    0.0000 ca      1  GRA1        0.0000
   2290 C         131.3986   31.9050    0.0000 ca      1  GRA1        0.0000
   2291 C         132.6266   32.6140    0.0000 ca      1  GRA1        0.0000
   2292 C         135.0826   29.7780    0.0000 ca      1  GRA1        0.0000
   2293 C         133.8546   30.4870    0.0000 ca      1  GRA1        0.0000
   2294 C         133.8546   31.9050    0.0000 ca      1  GRA1        0.0000
   2295 C         135.0826   32.6140    0.0000 ca      1  GRA1        0.0000
   2296 C         137.5387   29.7780    0.0000 ca      1  GRA1        0.0000
   2297 C         136.3107   30.4870    0.0000 ca      1  GRA1        0.0000
   2298 C         136.3107   31.9050    0.0000 ca      1  GRA1        0.0000
   2299 C         137.5387   32.6140    0.0000 ca      1  GRA1        0.0000
   2300 C         139.9947   29.7780    0.0000 ca      1  GRA1        0.0000
   2301 C         138.7667   30.4870    0.0000 ca      1  GRA1        0.0000
   2302 C         138.7667   31.9050    0.0000 ca      1  GRA1        0.0000
   2303 C         139.9947   32.6140    0.0000 ca      1  GRA1        0.0000
   2304 C         142.4508   29.7780    0.0000 ca      1  GRA1        0.0000
   2305 C         141.2228   30.4870    0.0000 ca      1  GRA1        0.0000
   2306 C         141.2228   31.9050    0.0000 ca      1  GRA1        0.0000
   2307 C         142.4508   32.6140    0.0000 ca      1  GRA1        0.0000
   2308 C         144.9068   29.7780    0.0000 ca      1  GRA1        0.0000
   2309 C         143.6788   30.4870    0.0000 ca      1  GRA1        0.0000
   2310 C         143.6788   31.9050    0.0000 ca      1  GRA1        0.0000
   2311 C         144.9068   32.6140    0.0000 ca      1  GRA1        0.0000
   2312 C         147.3629   29.7780    0.0000 ca      1  GRA1        0.0000
   2313 C         146.1349   30.4870    0.0000 ca      1  GRA1        0.0000
   2314 C         146.1349   31.9050    0.0000 ca      1  GRA1        0.0000
   2315 C         147.3629   32.6140    0.0000 ca      1  GRA1        0.0000
   2316 C         149.8189   29.7780    0.0000 ca      1  GRA1        0.0000
   2317 C         148.5909   30.4870    0.0000 ca      1  GRA1        0.0000
   2318 C         148.5909   31.9050    0.0000 ca      1  GRA1        0.0000
   2319 C         149.8189   32.6140    0.0000 ca      1  GRA1        0.0000
   2320 C         152.2750   29.7780    0.0000 ca      1  GRA1        0.0000
   2321 C         151.0470   30.4870    0.0000 ca      1  GRA1        0.0000
   2322 C         151.0470   31.9050    0.0000 ca      1  GRA1        0.0000
   2323 C         152.2750   32.6140    0.0000 ca      1  GRA1        0.0000
   2324 C         154.7310   29.7780    0.0000 ca      1  GRA1        0.0000
   2325 C         153.5030   30.4870    0.0000 ca      1  GRA1        0.0000
   2326 C         153.5030   31.9050    0.0000 ca      1  GRA1        0.0000
   2327 C         154.7310   32.6140    0.0000 ca      1  GRA1        0.0000
   2328 C         157.1871   29.7780    0.0000 ca      1  GRA1        0.0000
   2329 C         155.9590   30.4870    0.0000 ca      1  GRA1        0.0000
   2330 C         155.9590   31.9050    0.0000 ca      1  GRA1        0.0000
   2331 C         157.1871   32.6140    0.0000 ca      1  GRA1        0.0000
   2332 C         159.6431   29.7780    0.0000 ca      1  GRA1        0.0000
   2333 C         158.4151   30.4870    0.0000 ca      1  GRA1        0.0000
   2334 C         158.4151   31.9050    0.0000 ca      1  GRA1        0.0000
   2335 C         159.6431   32.6140    0.0000 ca      1  GRA1        0.0000
   2336 C         162.0992   29.7780    0.0000 ca      1  GRA1        0.0000
   2337 C         160.8711   30.4870    0.0000 ca      1  GRA1        0.0000
   2338 C         160.8711   31.9050    0.0000 ca      1  GRA1        0.0000
   2339 C         162.0992   32.6140    0.0000 ca      1  GRA1        0.0000
   2340 C         164.5552   29.7780    0.0000 ca      1  GRA1        0.0000
   2341 C         163.3272   30.4870    0.0000 ca      1  GRA1        0.0000
   2342 C         163.3272   31.9050    0.0000 ca      1  GRA1        0.0000
   2343 C         164.5552   32.6140    0.0000 ca      1  GRA1        0.0000
   2344 C         167.0113   29.7780    0.0000 ca      1  GRA1        0.0000
   2345 C         165.7832   30.4870    0.0000 ca      1  GRA1        0.0000
   2346 C         165.7832   31.9050    0.0000 ca      1  GRA1        0.0000
   2347 C         167.0113   32.6140    0.0000 ca      1  GRA1        0.0000
   2348 C         169.4673   29.7780    0.0000 ca      1  GRA1        0.0000
   2349 C         168.2393   30.4870    0.0000 ca      1  GRA1        0.0000
   2350 C         168.2393   31.9050    0.0000 ca      1  GRA1        0.0000
   2351 C         169.4673   32.6140    0.0000 ca      1  GRA1        0.0000
   2352 C         171.9234   29.7780    0.0000 ca      1  GRA1        0.0000
   2353 C         170.6953   30.4870    0.0000 ca      1  GRA1        0.0000
   2354 C         170.6953   31.9050    0.0000 ca      1  GRA1        0.0000
   2355 C         171.9234   32.6140    0.0000 ca      1  GRA1        0.0000
   2356 C         174.3794   29.7780    0.0000 ca      1  GRA1        0.0000
   2357 C         173.1514   30.4870    0.0000 ca      1  GRA1        0.0000
   2358 C         173.1514   31.9050    0.0000 ca      1  GRA1        0.0000
   2359 C         174.3794   32.6140    0.0000 ca      1  GRA1        0.0000
   2360 C         176.8355   29.7780    0.0000 ca      1  GRA1        0.0000
   2361 C         175.6074   30.4870    0.0000 ca      1  GRA1        0.0000
   2362 C         175.6074   31.9050    0.0000 ca      1  GRA1        0.0000
   2363 C         176.8355   32.6140    0.0000 ca      1  GRA1        0.0000
   2364 C         179.2915   29.7780    0.0000 ca      1  GRA1        0.0000
   2365 C         178.0635   30.4870    0.0000 ca      1  GRA1        0.0000
   2366 C         178.0635   31.9050    0.0000 ca      1  GRA1        0.0000
   2367 C         179.2915   32.6140    0.0000 ca      1  GRA1        0.0000
   2368 C           0.0000   34.0320    0.0000 ca      1  GRA1        0.0000
   2369 C          -1.2280   34.7410    0.0000 ca      1  GRA1        0.0000
   2370 C          -1.2280   36.1590    0.0000 ca      1  GRA1        0.0000
   2371 C           0.0000   36.8680    0.0000 ca      1  GRA1        0.0000
   2372 C           2.4560   34.0320    0.0000 ca      1  GRA1        0.0000
   2373 C           1.2280   34.7410    0.0000 ca      1  GRA1        0.0000
   2374 C           1.2280   36.1590    0.0000 ca      1  GRA1        0.0000
   2375 C           2.4560   36.8680    0.0000 ca      1  GRA1        0.0000
   2376 C           4.9121   34.0320    0.0000 ca      1  GRA1        0.0000
   2377 C           3.6841   34.7410    0.0000 ca      1  GRA1        0.0000
   2378 C           3.6841   36.1590    0.0000 ca      1  GRA1        0.0000
   2379 C           4.9121   36.8680    0.0000 ca      1  GRA1        0.0000
   2380 C           7.3681   34.0320    0.0000 ca      1  GRA1        0.0000
   2381 C           6.1401   34.7410    0.0000 ca      1  GRA1        0.0000
   2382 C           6.1401   36.1590    0.0000 ca      1  GRA1        0.0000
   2383 C           7.3681   36.8680    0.0000 ca      1  GRA1        0.0000
   2384 C           9.8242   34.0320    0.0000 ca      1  GRA1        0.0000
   2385 C           8.5962   34.7410    0.0000 ca      1  GRA1        0.0000
   2386 C           8.5962   36.1590    0.0000 ca      1  GRA1        0.0000
   2387 C           9.8242   36.8680    0.0000 ca      1  GRA1        0.0000
   2388 C          12.2802   34.0320    0.0000 ca      1  GRA1        0.0000
   2389 C          11.0522   34.7410    0.0000 ca      1  GRA1        0.0000
   2390 C          11.0522   36.1590    0.0000 ca      1  GRA1        0.0000
   2391 C          12.2802   36.8680    0.0000 ca      1  GRA1        0.0000
   2392 C          14.7363   34.0320    0.0000 ca      1  GRA1        0.0000
   2393 C          13.5083   34.7410    0.0000 ca      1  GRA1        0.0000
   2394 C          13.5083   36.1590    0.0000 ca      1  GRA1        0.0000
   2395 C          14.7363   36.8680    0.0000 ca      1  GRA1        0.0000
   2396 C          17.1923   34.0320    0.0000 ca      1  GRA1        0.0000
   2397 C          15.9643   34.7410    0.0000 ca      1  GRA1        0.0000
   2398 C          15.9643   36.1590    0.0000 ca      1  GRA1        0.0000
   2399 C          17.1923   36.8680    0.0000 ca      1  GRA1        0.0000
   2400 C          19.6484   34.0320    0.0000 ca      1  GRA1        0.0000
   2401 C          18.4204   34.7410    0.0000 ca      1  GRA1        0.0000
   2402 C          18.4204   36.1590    0.0000 ca      1  GRA1        0.0000
   2403 C          19.6484   36.8680    0.0000 ca      1  GRA1        0.0000
   2404 C          22.1044   34.0320    0.0000 ca      1  GRA1        0.0000
   2405 C          20.8764   34.7410    0.0000 ca      1  GRA1        0.0000
   2406 C          20.8764   36.1590    0.0000 ca      1  GRA1        0.0000
   2407 C          22.1044   36.8680    0.0000 ca      1  GRA1        0.0000
   2408 C          24.5605   34.0320    0.0000 ca      1  GRA1        0.0000
   2409 C          23.3325   34.7410    0.0000 ca      1  GRA1        0.0000
   2410 C          23.3325   36.1590    0.0000 ca      1  GRA1        0.0000
   2411 C          24.5605   36.8680    0.0000 ca      1  GRA1        0.0000
   2412 C          27.0165   34.0320    0.0000 ca      1  GRA1        0.0000
   2413 C          25.7885   34.7410    0.0000 ca      1  GRA1        0.0000
   2414 C          25.7885   36.1590    0.0000 ca      1  GRA1        0.0000
   2415 C          27.0165   36.8680    0.0000 ca      1  GRA1        0.0000
   2416 C          29.4726   34.0320    0.0000 ca      1  GRA1        0.0000
   2417 C          28.2446   34.7410    0.0000 ca      1  GRA1        0.0000
   2418 C          28.2446   36.1590    0.0000 ca      1  GRA1        0.0000
   2419 C          29.4726   36.8680    0.0000 ca      1  GRA1        0.0000
   2420 C          31.9286   34.0320    0.0000 ca      1  GRA1        0.0000
   2421 C          30.7006   34.7410    0.0000 ca      1  GRA1        0.0000
   2422 C          30.7006   36.1590    0.0000 ca      1  GRA1        0.0000
   2423 C          31.9286   36.8680    0.0000 ca      1  GRA1        0.0000
   2424 C          34.3847   34.0320    0.0000 ca      1  GRA1        0.0000
   2425 C          33.1566   34.7410    0.0000 ca      1  GRA1        0.0000
   2426 C          33.1566   36.1590    0.0000 ca      1  GRA1        0.0000
   2427 C          34.3847   36.8680    0.0000 ca      1  GRA1        0.0000
   2428 C          36.8407   34.0320    0.0000 ca      1  GRA1        0.0000
   2429 C          35.6127   34.7410    0.0000 ca      1  GRA1        0.0000
   2430 C          35.6127   36.1590    0.0000 ca      1  GRA1        0.0000
   2431 C          36.8407   36.8680    0.0000 ca      1  GRA1        0.0000
   2432 C          39.2968   34.0320    0.0000 ca      1  GRA1        0.0000
   2433 C          38.0687   34.7410    0.0000 ca      1  GRA1        0.0000
   2434 C          38.0687   36.1590    0.0000 ca      1  GRA1        0.0000
   2435 C          39.2968   36.8680    0.0000 ca      1  GRA1        0.0000
   2436 C          41.7528   34.0320    0.0000 ca      1  GRA1        0.0000
   2437 C          40.5248   34.7410    0.0000 ca      1  GRA1        0.0000
   2438 C          40.5248   36.1590    0.0000 ca      1  GRA1        0.0000
   2439 C          41.7528   36.8680    0.0000 ca      1  GRA1        0.0000
   2440 C          44.2089   34.0320    0.0000 ca      1  GRA1        0.0000
   2441 C          42.9808   34.7410    0.0000 ca      1  GRA1        0.0000
   2442 C          42.9808   36.1590    0.0000 ca      1  GRA1        0.0000
   2443 C          44.2089   36.8680    0.0000 ca      1  GRA1        0.0000
   2444 C          46.6649   34.0320    0.0000 ca      1  GRA1        0.0000
   2445 C          45.4369   34.7410    0.0000 ca      1  GRA1        0.0000
   2446 C          45.4369   36.1590    0.0000 ca      1  GRA1        0.0000
   2447 C          46.6649   36.8680    0.0000 ca      1  GRA1        0.0000
   2448 C          49.1210   34.0320    0.0000 ca      1  GRA1        0.0000
   2449 C          47.8929   34.7410    0.0000 ca      1  GRA1        0.0000
   2450 C          47.8929   36.1590    0.0000 ca      1  GRA1        0.0000
   2451 C          49.1210   36.8680    0.0000 ca      1  GRA1        0.0000
   2452 C          51.5770   34.0320    0.0000 ca      1  GRA1        0.0000
   2453 C          50.3490   34.7410    0.0000 ca      1  GRA1        0.0000
   2454 C          50.3490   36.1590    0.0000 ca      1  GRA1        0.0000
   2455 C          51.5770   36.8680    0.0000 ca      1  GRA1        0.0000
   2456 C          54.0331   34.0320    0.0000 ca      1  GRA1        0.0000
   2457 C          52.8050   34.7410    0.0000 ca      1  GRA1        0.0000
   2458 C          52.8050   36.1590    0.0000 ca      1  GRA1        0.0000
   2459 C          54.0331   36.8680    0.0000 ca      1  GRA1        0.0000
   2460 C          56.4891   34.0320    0.0000 ca      1  GRA1        0.0000
   2461 C          55.2611   34.7410    0.0000 ca      1  GRA1        0.0000
   2462 C          55.2611   36.1590    0.0000 ca      1  GRA1        0.0000
   2463 C          56.4891   36.8680    0.0000 ca      1  GRA1        0.0000
   2464 C          58.9452   34.0320    0.0000 ca      1  GRA1        0.0000
   2465 C          57.7171   34.7410    0.0000 ca      1  GRA1        0.0000
   2466 C          57.7171   36.1590    0.0000 ca      1  GRA1        0.0000
   2467 C          58.9452   36.8680    0.0000 ca      1  GRA1        0.0000
   2468 C          61.4012   34.0320    0.0000 ca      1  GRA1        0.0000
   2469 C          60.1732   34.7410    0.0000 ca      1  GRA1        0.0000
   2470 C          60.1732   36.1590    0.0000 ca      1  GRA1        0.0000
   2471 C          61.4012   36.8680    0.0000 ca      1  GRA1        0.0000
   2472 C          63.8573   34.0320    0.0000 ca      1  GRA1        0.0000
   2473 C          62.6292   34.7410    0.0000 ca      1  GRA1        0.0000
   2474 C          62.6292   36.1590    0.0000 ca      1  GRA1        0.0000
   2475 C          63.8573   36.8680    0.0000 ca      1  GRA1        0.0000
   2476 C          66.3133   34.0320    0.0000 ca      1  GRA1        0.0000
   2477 C          65.0853   34.7410    0.0000 ca      1  GRA1        0.0000
   2478 C          65.0853   36.1590    0.0000 ca      1  GRA1        0.0000
   2479 C          66.3133   36.8680    0.0000 ca      1  GRA1        0.0000
   2480 C          68.7693   34.0320    0.0000 ca      1  GRA1        0.0000
   2481 C          67.5413   34.7410    0.0000 ca      1  GRA1        0.0000
   2482 C          67.5413   36.1590    0.0000 ca      1  GRA1        0.0000
   2483 C          68.7693   36.8680    0.0000 ca      1  GRA1        0.0000
   2484 C          71.2254   34.0320    0.0000 ca      1  GRA1        0.0000
   2485 C          69.9974   34.7410    0.0000 ca      1  GRA1        0.0000
   2486 C          69.9974   36.1590    0.0000 ca      1  GRA1        0.0000
   2487 C          71.2254   36.8680    0.0000 ca      1  GRA1        0.0000
   2488 C          73.6814   34.0320    0.0000 ca      1  GRA1        0.0000
   2489 C          72.4534   34.7410    0.0000 ca      1  GRA1        0.0000
   2490 C          72.4534   36.1590    0.0000 ca      1  GRA1        0.0000
   2491 C          73.6814   36.8680    0.0000 ca      1  GRA1        0.0000
   2492 C          76.1375   34.0320    0.0000 ca      1  GRA1        0.0000
   2493 C          74.9095   34.7410    0.0000 ca      1  GRA1        0.0000
   2494 C          74.9095   36.1590    0.0000 ca      1  GRA1        0.0000
   2495 C          76.1375   36.8680    0.0000 ca      1  GRA1        0.0000
   2496 C          78.5935   34.0320    0.0000 ca      1  GRA1        0.0000
   2497 C          77.3655   34.7410    0.0000 ca      1  GRA1        0.0000
   2498 C          77.3655   36.1590    0.0000 ca      1  GRA1        0.0000
   2499 C          78.5935   36.8680    0.0000 ca      1  GRA1        0.0000
   2500 C          81.0496   34.0320    0.0000 ca      1  GRA1        0.0000
   2501 C          79.8216   34.7410    0.0000 ca      1  GRA1        0.0000
   2502 C          79.8216   36.1590    0.0000 ca      1  GRA1        0.0000
   2503 C          81.0496   36.8680    0.0000 ca      1  GRA1        0.0000
   2504 C          83.5056   34.0320    0.0000 ca      1  GRA1        0.0000
   2505 C          82.2776   34.7410    0.0000 ca      1  GRA1        0.0000
   2506 C          82.2776   36.1590    0.0000 ca      1  GRA1        0.0000
   2507 C          83.5056   36.8680    0.0000 ca      1  GRA1        0.0000
   2508 C          85.9617   34.0320    0.0000 ca      1  GRA1        0.0000
   2509 C          84.7337   34.7410    0.0000 ca      1  GRA1        0.0000
   2510 C          84.7337   36.1590    0.0000 ca      1  GRA1        0.0000
   2511 C          85.9617   36.8680    0.0000 ca      1  GRA1        0.0000
   2512 C          88.4177   34.0320    0.0000 ca      1  GRA1        0.0000
   2513 C          87.1897   34.7410    0.0000 ca      1  GRA1        0.0000
   2514 C          87.1897   36.1590    0.0000 ca      1  GRA1        0.0000
   2515 C          88.4177   36.8680    0.0000 ca      1  GRA1        0.0000
   2516 C          90.8738   34.0320    0.0000 ca      1  GRA1        0.0000
   2517 C          89.6458   34.7410    0.0000 ca      1  GRA1        0.0000
   2518 C          89.6458   36.1590    0.0000 ca      1  GRA1        0.0000
   2519 C          90.8738   36.8680    0.0000 ca      1  GRA1        0.0000
   2520 C          93.3298   34.0320    0.0000 ca      1  GRA1        0.0000
   2521 C          92.1018   34.7410    0.0000 ca      1  GRA1        0.0000
   2522 C          92.1018   36.1590    0.0000 ca      1  GRA1        0.0000
   2523 C          93.3298   36.8680    0.0000 ca      1  GRA1        0.0000
   2524 C          95.7859   34.0320    0.0000 ca      1  GRA1        0.0000
   2525 C          94.5578   34.7410    0.0000 ca      1  GRA1        0.0000
   2526 C          94.5578   36.1590    0.0000 ca      1  GRA1        0.0000
   2527 C          95.7859   36.8680    0.0000 ca      1  GRA1        0.0000
   2528 C          98.2419   34.0320    0.0000 ca      1  GRA1        0.0000
   2529 C          97.0139   34.7410    0.0000 ca      1  GRA1        0.0000
   2530 C          97.0139   36.1590    0.0000 ca      1  GRA1        0.0000
   2531 C          98.2419   36.8680    0.0000 ca      1  GRA1        0.0000
   2532 C         100.6980   34.0320    0.0000 ca      1  GRA1        0.0000
   2533 C          99.4699   34.7410    0.0000 ca      1  GRA1        0.0000
   2534 C          99.4699   36.1590    0.0000 ca      1  GRA1        0.0000
   2535 C         100.6980   36.8680    0.0000 ca      1  GRA1        0.0000
   2536 C         103.1540   34.0320    0.0000 ca      1  GRA1        0.0000
   2537 C         101.9260   34.7410    0.0000 ca      1  GRA1        0.0000
   2538 C         101.9260   36.1590    0.0000 ca      1  GRA1        0.0000
   2539 C         103.1540   36.8680    0.0000 ca      1  GRA1        0.0000
   2540 C         105.6101   34.0320    0.0000 ca      1  GRA1        0.0000
   2541 C         104.3820   34.7410    0.0000 ca      1  GRA1        0.0000
   2542 C         104.3820   36.1590    0.0000 ca      1  GRA1        0.0000
   2543 C         105.6101   36.8680    0.0000 ca      1  GRA1        0.0000
   2544 C         108.0661   34.0320    0.0000 ca      1  GRA1        0.0000
   2545 C         106.8381   34.7410    0.0000 ca      1  GRA1        0.0000
   2546 C         106.8381   36.1590    0.0000 ca      1  GRA1        0.0000
   2547 C         108.0661   36.8680    0.0000 ca      1  GRA1        0.0000
   2548 C         110.5222   34.0320    0.0000 ca      1  GRA1        0.0000
   2549 C         109.2941   34.7410    0.0000 ca      1  GRA1        0.0000
   2550 C         109.2941   36.1590    0.0000 ca      1  GRA1        0.0000
   2551 C         110.5222   36.8680    0.0000 ca      1  GRA1        0.0000
   2552 C         112.9782   34.0320    0.0000 ca      1  GRA1        0.0000
   2553 C         111.7502   34.7410    0.0000 ca      1  GRA1        0.0000
   2554 C         111.7502   36.1590    0.0000 ca      1  GRA1        0.0000
   2555 C         112.9782   36.8680    0.0000 ca      1  GRA1        0.0000
   2556 C         115.4343   34.0320    0.0000 ca      1  GRA1        0.0000
   2557 C         114.2062   34.7410    0.0000 ca      1  GRA1        0.0000
   2558 C         114.2062   36.1590    0.0000 ca      1  GRA1        0.0000
   2559 C         115.4343   36.8680    0.0000 ca      1  GRA1        0.0000
   2560 C         117.8903   34.0320    0.0000 ca      1  GRA1        0.0000
   2561 C         116.6623   34.7410    0.0000 ca      1  GRA1        0.0000
   2562 C         116.6623   36.1590    0.0000 ca      1  GRA1        0.0000
   2563 C         117.8903   36.8680    0.0000 ca      1  GRA1        0.0000
   2564 C         120.3464   34.0320    0.0000 ca      1  GRA1        0.0000
   2565 C         119.1183   34.7410    0.0000 ca      1  GRA1        0.0000
   2566 C         119.1183   36.1590    0.0000 ca      1  GRA1        0.0000
   2567 C         120.3464   36.8680    0.0000 ca      1  GRA1        0.0000
   2568 C         122.8024   34.0320    0.0000 ca      1  GRA1        0.0000
   2569 C         121.5744   34.7410    0.0000 ca      1  GRA1        0.0000
   2570 C         121.5744   36.1590    0.0000 ca      1  GRA1        0.0000
   2571 C         122.8024   36.8680    0.0000 ca      1  GRA1        0.0000
   2572 C         125.2585   34.0320    0.0000 ca      1  GRA1        0.0000
   2573 C         124.0304   34.7410    0.0000 ca      1  GRA1        0.0000
   2574 C         124.0304   36.1590    0.0000 ca      1  GRA1        0.0000
   2575 C         125.2585   36.8680    0.0000 ca      1  GRA1        0.0000
   2576 C         127.7145   34.0320    0.0000 ca      1  GRA1        0.0000
   2577 C         126.4865   34.7410    0.0000 ca      1  GRA1        0.0000
   2578 C         126.4865   36.1590    0.0000 ca      1  GRA1        0.0000
   2579 C         127.7145   36.8680    0.0000 ca      1  GRA1        0.0000
   2580 C         130.1705   34.0320    0.0000 ca      1  GRA1        0.0000
   2581 C         128.9425   34.7410    0.0000 ca      1  GRA1        0.0000
   2582 C         128.9425   36.1590    0.0000 ca      1  GRA1        0.0000
   2583 C         130.1705   36.8680    0.0000 ca      1  GRA1        0.0000
   2584 C         132.6266   34.0320    0.0000 ca      1  GRA1        0.0000
   2585 C         131.3986   34.7410    0.0000 ca      1  GRA1        0.0000
   2586 C         131.3986   36.1590    0.0000 ca      1  GRA1        0.0000
   2587 C         132.6266   36.8680    0.0000 ca      1  GRA1        0.0000
   2588 C         135.0826   34.0320    0.0000 ca      1  GRA1        0.0000
   2589 C         133.8546   34.7410    0.0000 ca      1  GRA1        0.0000
   2590 C         133.8546   36.1590    0.0000 ca      1  GRA1        0.0000
   2591 C         135.0826   36.8680    0.0000 ca      1  GRA1        0.0000
   2592 C         137.5387   34.0320    0.0000 ca      1  GRA1        0.0000
   2593 C         136.3107   34.7410    0.0000 ca      1  GRA1        0.0000
   2594 C         136.3107   36.1590    0.0000 ca      1  GRA1        0.0000
   2595 C         137.5387   36.8680    0.0000 ca      1  GRA1        0.0000
   2596 C         139.9947   34.0320    0.0000 ca      1  GRA1        0.0000
   2597 C         138.7667   34.7410    0.0000 ca      1  GRA1        0.0000
   2598 C         138.7667   36.1590    0.0000 ca      1  GRA1        0.0000
   2599 C         139.9947   36.8680    0.0000 ca      1  GRA1        0.0000
   2600 C         142.4508   34.0320    0.0000 ca      1  GRA1        0.0000
   2601 C         141.2228   34.7410    0.0000 ca      1  GRA1        0.0000
   2602 C         141.2228   36.1590    0.0000 ca      1  GRA1        0.0000
   2603 C         142.4508   36.8680    0.0000 ca      1  GRA1        0.0000
   2604 C         144.9068   34.0320    0.0000 ca      1  GRA1        0.0000
   2605 C         143.6788   34.7410    0.0000 ca      1  GRA1        0.0000
   2606 C         143.6788   36.1590    0.0000 ca      1  GRA1        0.0000
   2607 C         144.9068   36.8680    0.0000 ca      1  GRA1        0.0000
   2608 C         147.3629   34.0320    0.0000 ca      1  GRA1        0.0000
   2609 C         146.1349   34.7410    0.0000 ca      1  GRA1        0.0000
   2610 C         146.1349   36.1590    0.0000 ca      1  GRA1        0.0000
   2611 C         147.3629   36.8680    0.0000 ca      1  GRA1        0.0000
   2612 C         149.8189   34.0320    0.0000 ca      1  GRA1        0.0000
   2613 C         148.5909   34.7410    0.0000 ca      1  GRA1        0.0000
   2614 C         148.5909   36.1590    0.0000 ca      1  GRA1        0.0000
   2615 C         149.8189   36.8680    0.0000 ca      1  GRA1        0.0000
   2616 C         152.2750   34.0320    0.0000 ca      1  GRA1        0.0000
   2617 C         151.0470   34.7410    0.0000 ca      1  GRA1        0.0000
   2618 C         151.0470   36.1590    0.0000 ca      1  GRA1        0.0000
   2619 C         152.2750   36.8680    0.0000 ca      1  GRA1        0.0000
   2620 C         154.7310   34.0320    0.0000 ca      1  GRA1        0.0000
   2621 C         153.5030   34.7410    0.0000 ca      1  GRA1        0.0000
   2622 C         153.5030   36.1590    0.0000 ca      1  GRA1        0.0000
   2623 C         154.7310   36.8680    0.0000 ca      1  GRA1        0.0000
   2624 C         157.1871   34.0320    0.0000 ca      1  GRA1        0.0000
   2625 C         155.9590   34.7410    0.0000 ca      1  GRA1        0.0000
   2626 C         155.9590   36.1590    0.0000 ca      1  GRA1        0.0000
   2627 C         157.1871   36.8680    0.0000 ca      1  GRA1        0.0000
   2628 C         159.6431   34.0320    0.0000 ca      1  GRA1        0.0000
   2629 C         158.4151   34.7410    0.0000 ca      1  GRA1        0.0000
   2630 C         158.4151   36.1590    0.0000 ca      1  GRA1        0.0000
   2631 C         159.6431   36.8680    0.0000 ca      1  GRA1        0.0000
   2632 C         162.0992   34.0320    0.0000 ca      1  GRA1        0.0000
   2633 C         160.8711   34.7410    0.0000 ca      1  GRA1        0.0000
   2634 C         160.8711   36.1590    0.0000 ca      1  GRA1        0.0000
   2635 C         162.0992   36.8680    0.0000 ca      1  GRA1        0.0000
   2636 C         164.5552   34.0320    0.0000 ca      1  GRA1        0.0000
   2637 C         163.3272   34.7410    0.0000 ca      1  GRA1        0.0000
   2638 C         163.3272   36.1590    0.0000 ca      1  GRA1        0.0000
   2639 C         164.5552   36.8680    0.0000 ca      1  GRA1        0.0000
   2640 C         167.0113   34.0320    0.0000 ca      1  GRA1        0.0000
   2641 C         165.7832   34.7410    0.0000 ca      1  GRA1        0.0000
   2642 C         165.7832   36.1590    0.0000 ca      1  GRA1        0.0000
   2643 C         167.0113   36.8680    0.0000 ca      1  GRA1        0.0000
   2644 C         169.4673   34.0320    0.0000 ca      1  GRA1        0.0000
   2645 C         168.2393   34.7410    0.0000 ca      1  GRA1        0.0000
   2646 C         168.2393   36.1590    0.0000 ca      1  GRA1        0.0000
   2647 C         169.4673   36.8680    0.0000 ca      1  GRA1        0.0000
   2648 C         171.9234   34.0320    0.0000 ca      1  GRA1        0.0000
   2649 C         170.6953   34.7410    0.0000 ca      1  GRA1        0.0000
   2650 C         170.6953   36.1590    0.0000 ca      1  GRA1        0.0000
   2651 C         171.9234   36.8680    0.0000 ca      1  GRA1        0.0000
   2652 C         174.3794   34.0320    0.0000 ca      1  GRA1        0.0000
   2653 C         173.1514   34.7410    0.0000 ca      1  GRA1        0.0000
   2654 C         173.1514   36.1590    0.0000 ca      1  GRA1        0.0000
   2655 C         174.3794   36.8680    0.0000 ca      1  GRA1        0.0000
   2656 C         176.8355   34.0320    0.0000 ca      1  GRA1        0.0000
   2657 C         175.6074   34.7410    0.0000 ca      1  GRA1        0.0000
   2658 C         175.6074   36.1590    0.0000 ca      1  GRA1        0.0000
   2659 C         176.8355   36.8680    0.0000 ca      1  GRA1        0.0000
   2660 C         179.2915   34.0320    0.0000 ca      1  GRA1        0.0000
   2661 C         178.0635   34.7410    0.0000 ca      1  GRA1        0.0000
   2662 C         178.0635   36.1590    0.0000 ca      1  GRA1        0.0000
   2663 C         179.2915   36.8680    0.0000 ca      1  GRA1        0.0000
   2664 C           0.0000   38.2860    0.0000 ca      1  GRA1        0.0000
   2665 C          -1.2280   38.9950    0.0000 ca      1  GRA1        0.0000
   2666 C          -1.2280   40.4130    0.0000 ca      1  GRA1        0.0000
   2667 C           0.0000   41.1220    0.0000 ca      1  GRA1        0.0000
   2668 C           2.4560   38.2860    0.0000 ca      1  GRA1        0.0000
   2669 C           1.2280   38.9950    0.0000 ca      1  GRA1        0.0000
   2670 C           1.2280   40.4130    0.0000 ca      1  GRA1        0.0000
   2671 C           2.4560   41.1220    0.0000 ca      1  GRA1        0.0000
   2672 C           4.9121   38.2860    0.0000 ca      1  GRA1        0.0000
   2673 C           3.6841   38.9950    0.0000 ca      1  GRA1        0.0000
   2674 C           3.6841   40.4130    0.0000 ca      1  GRA1        0.0000
   2675 C           4.9121   41.1220    0.0000 ca      1  GRA1        0.0000
   2676 C           7.3681   38.2860    0.0000 ca      1  GRA1        0.0000
   2677 C           6.1401   38.9950    0.0000 ca      1  GRA1        0.0000
   2678 C           6.1401   40.4130    0.0000 ca      1  GRA1        0.0000
   2679 C           7.3681   41.1220    0.0000 ca      1  GRA1        0.0000
   2680 C           9.8242   38.2860    0.0000 ca      1  GRA1        0.0000
   2681 C           8.5962   38.9950    0.0000 ca      1  GRA1        0.0000
   2682 C           8.5962   40.4130    0.0000 ca      1  GRA1        0.0000
   2683 C           9.8242   41.1220    0.0000 ca      1  GRA1        0.0000
   2684 C          12.2802   38.2860    0.0000 ca      1  GRA1        0.0000
   2685 C          11.0522   38.9950    0.0000 ca      1  GRA1        0.0000
   2686 C          11.0522   40.4130    0.0000 ca      1  GRA1        0.0000
   2687 C          12.2802   41.1220    0.0000 ca      1  GRA1        0.0000
   2688 C          14.7363   38.2860    0.0000 ca      1  GRA1        0.0000
   2689 C          13.5083   38.9950    0.0000 ca      1  GRA1        0.0000
   2690 C          13.5083   40.4130    0.0000 ca      1  GRA1        0.0000
   2691 C          14.7363   41.1220    0.0000 ca      1  GRA1        0.0000
   2692 C          17.1923   38.2860    0.0000 ca      1  GRA1        0.0000
   2693 C          15.9643   38.9950    0.0000 ca      1  GRA1        0.0000
   2694 C          15.9643   40.4130    0.0000 ca      1  GRA1        0.0000
   2695 C          17.1923   41.1220    0.0000 ca      1  GRA1        0.0000
   2696 C          19.6484   38.2860    0.0000 ca      1  GRA1        0.0000
   2697 C          18.4204   38.9950    0.0000 ca      1  GRA1        0.0000
   2698 C          18.4204   40.4130    0.0000 ca      1  GRA1        0.0000
   2699 C          19.6484   41.1220    0.0000 ca      1  GRA1        0.0000
   2700 C          22.1044   38.2860    0.0000 ca      1  GRA1        0.0000
   2701 C          20.8764   38.9950    0.0000 ca      1  GRA1        0.0000
   2702 C          20.8764   40.4130    0.0000 ca      1  GRA1        0.0000
   2703 C          22.1044   41.1220    0.0000 ca      1  GRA1        0.0000
   2704 C          24.5605   38.2860    0.0000 ca      1  GRA1        0.0000
   2705 C          23.3325   38.9950    0.0000 ca      1  GRA1        0.0000
   2706 C          23.3325   40.4130    0.0000 ca      1  GRA1        0.0000
   2707 C          24.5605   41.1220    0.0000 ca      1  GRA1        0.0000
   2708 C          27.0165   38.2860    0.0000 ca      1  GRA1        0.0000
   2709 C          25.7885   38.9950    0.0000 ca      1  GRA1        0.0000
   2710 C          25.7885   40.4130    0.0000 ca      1  GRA1        0.0000
   2711 C          27.0165   41.1220    0.0000 ca      1  GRA1        0.0000
   2712 C          29.4726   38.2860    0.0000 ca      1  GRA1        0.0000
   2713 C          28.2446   38.9950    0.0000 ca      1  GRA1        0.0000
   2714 C          28.2446   40.4130    0.0000 ca      1  GRA1        0.0000
   2715 C          29.4726   41.1220    0.0000 ca      1  GRA1        0.0000
   2716 C          31.9286   38.2860    0.0000 ca      1  GRA1        0.0000
   2717 C          30.7006   38.9950    0.0000 ca      1  GRA1        0.0000
   2718 C          30.7006   40.4130    0.0000 ca      1  GRA1        0.0000
   2719 C          31.9286   41.1220    0.0000 ca      1  GRA1        0.0000
   2720 C          34.3847   38.2860    0.0000 ca      1  GRA1        0.0000
   2721 C          33.1566   38.9950    0.0000 ca      1  GRA1        0.0000
   2722 C          33.1566   40.4130    0.0000 ca      1  GRA1        0.0000
   2723 C          34.3847   41.1220    0.0000 ca      1  GRA1        0.0000
   2724 C          36.8407   38.2860    0.0000 ca      1  GRA1        0.0000
   2725 C          35.6127   38.9950    0.0000 ca      1  GRA1        0.0000
   2726 C          35.6127   40.4130    0.0000 ca      1  GRA1        0.0000
   2727 C          36.8407   41.1220    0.0000 ca      1  GRA1        0.0000
   2728 C          39.2968   38.2860    0.0000 ca      1  GRA1        0.0000
   2729 C          38.0687   38.9950    0.0000 ca      1  GRA1        0.0000
   2730 C          38.0687   40.4130    0.0000 ca      1  GRA1        0.0000
   2731 C          39.2968   41.1220    0.0000 ca      1  GRA1        0.0000
   2732 C          41.7528   38.2860    0.0000 ca      1  GRA1        0.0000
   2733 C          40.5248   38.9950    0.0000 ca      1  GRA1        0.0000
   2734 C          40.5248   40.4130    0.0000 ca      1  GRA1        0.0000
   2735 C          41.7528   41.1220    0.0000 ca      1  GRA1        0.0000
   2736 C          44.2089   38.2860    0.0000 ca      1  GRA1        0.0000
   2737 C          42.9808   38.9950    0.0000 ca      1  GRA1        0.0000
   2738 C          42.9808   40.4130    0.0000 ca      1  GRA1        0.0000
   2739 C          44.2089   41.1220    0.0000 ca      1  GRA1        0.0000
   2740 C          46.6649   38.2860    0.0000 ca      1  GRA1        0.0000
   2741 C          45.4369   38.9950    0.0000 ca      1  GRA1        0.0000
   2742 C          45.4369   40.4130    0.0000 ca      1  GRA1        0.0000
   2743 C          46.6649   41.1220    0.0000 ca      1  GRA1        0.0000
   2744 C          49.1210   38.2860    0.0000 ca      1  GRA1        0.0000
   2745 C          47.8929   38.9950    0.0000 ca      1  GRA1        0.0000
   2746 C          47.8929   40.4130    0.0000 ca      1  GRA1        0.0000
   2747 C          49.1210   41.1220    0.0000 ca      1  GRA1        0.0000
   2748 C          51.5770   38.2860    0.0000 ca      1  GRA1        0.0000
   2749 C          50.3490   38.9950    0.0000 ca      1  GRA1        0.0000
   2750 C          50.3490   40.4130    0.0000 ca      1  GRA1        0.0000
   2751 C          51.5770   41.1220    0.0000 ca      1  GRA1        0.0000
   2752 C          54.0331   38.2860    0.0000 ca      1  GRA1        0.0000
   2753 C          52.8050   38.9950    0.0000 ca      1  GRA1        0.0000
   2754 C          52.8050   40.4130    0.0000 ca      1  GRA1        0.0000
   2755 C          54.0331   41.1220    0.0000 ca      1  GRA1        0.0000
   2756 C          56.4891   38.2860    0.0000 ca      1  GRA1        0.0000
   2757 C          55.2611   38.9950    0.0000 ca      1  GRA1        0.0000
   2758 C          55.2611   40.4130    0.0000 ca      1  GRA1        0.0000
   2759 C          56.4891   41.1220    0.0000 ca      1  GRA1        0.0000
   2760 C          58.9452   38.2860    0.0000 ca      1  GRA1        0.0000
   2761 C          57.7171   38.9950    0.0000 ca      1  GRA1        0.0000
   2762 C          57.7171   40.4130    0.0000 ca      1  GRA1        0.0000
   2763 C          58.9452   41.1220    0.0000 ca      1  GRA1        0.0000
   2764 C          61.4012   38.2860    0.0000 ca      1  GRA1        0.0000
   2765 C          60.1732   38.9950    0.0000 ca      1  GRA1        0.0000
   2766 C          60.1732   40.4130    0.0000 ca      1  GRA1        0.0000
   2767 C          61.4012   41.1220    0.0000 ca      1  GRA1        0.0000
   2768 C          63.8573   38.2860    0.0000 ca      1  GRA1        0.0000
   2769 C          62.6292   38.9950    0.0000 ca      1  GRA1        0.0000
   2770 C          62.6292   40.4130    0.0000 ca      1  GRA1        0.0000
   2771 C          63.8573   41.1220    0.0000 ca      1  GRA1        0.0000
   2772 C          66.3133   38.2860    0.0000 ca      1  GRA1        0.0000
   2773 C          65.0853   38.9950    0.0000 ca      1  GRA1        0.0000
   2774 C          65.0853   40.4130    0.0000 ca      1  GRA1        0.0000
   2775 C          66.3133   41.1220    0.0000 ca      1  GRA1        0.0000
   2776 C          68.7693   38.2860    0.0000 ca      1  GRA1        0.0000
   2777 C          67.5413   38.9950    0.0000 ca      1  GRA1        0.0000
   2778 C          67.5413   40.4130    0.0000 ca      1  GRA1        0.0000
   2779 C          68.7693   41.1220    0.0000 ca      1  GRA1        0.0000
   2780 C          71.2254   38.2860    0.0000 ca      1  GRA1        0.0000
   2781 C          69.9974   38.9950    0.0000 ca      1  GRA1        0.0000
   2782 C          69.9974   40.4130    0.0000 ca      1  GRA1        0.0000
   2783 C          71.2254   41.1220    0.0000 ca      1  GRA1        0.0000
   2784 C          73.6814   38.2860    0.0000 ca      1  GRA1        0.0000
   2785 C          72.4534   38.9950    0.0000 ca      1  GRA1        0.0000
   2786 C          72.4534   40.4130    0.0000 ca      1  GRA1        0.0000
   2787 C          73.6814   41.1220    0.0000 ca      1  GRA1        0.0000
   2788 C          76.1375   38.2860    0.0000 ca      1  GRA1        0.0000
   2789 C          74.9095   38.9950    0.0000 ca      1  GRA1        0.0000
   2790 C          74.9095   40.4130    0.0000 ca      1  GRA1        0.0000
   2791 C          76.1375   41.1220    0.0000 ca      1  GRA1        0.0000
   2792 C          78.5935   38.2860    0.0000 ca      1  GRA1        0.0000
   2793 C          77.3655   38.9950    0.0000 ca      1  GRA1        0.0000
   2794 C          77.3655   40.4130    0.0000 ca      1  GRA1        0.0000
   2795 C          78.5935   41.1220    0.0000 ca      1  GRA1        0.0000
   2796 C          81.0496   38.2860    0.0000 ca      1  GRA1        0.0000
   2797 C          79.8216   38.9950    0.0000 ca      1  GRA1        0.0000
   2798 C          79.8216   40.4130    0.0000 ca      1  GRA1        0.0000
   2799 C          81.0496   41.1220    0.0000 ca      1  GRA1        0.0000
   2800 C          83.5056   38.2860    0.0000 ca      1  GRA1        0.0000
   2801 C          82.2776   38.9950    0.0000 ca      1  GRA1        0.0000
   2802 C          82.2776   40.4130    0.0000 ca      1  GRA1        0.0000
   2803 C          83.5056   41.1220    0.0000 ca      1  GRA1        0.0000
   2804 C          85.9617   38.2860    0.0000 ca      1  GRA1        0.0000
   2805 C          84.7337   38.9950    0.0000 ca      1  GRA1        0.0000
   2806 C          84.7337   40.4130    0.0000 ca      1  GRA1        0.0000
   2807 C          85.9617   41.1220    0.0000 ca      1  GRA1        0.0000
   2808 C          88.4177   38.2860    0.0000 ca      1  GRA1        0.0000
   2809 C          87.1897   38.9950    0.0000 ca      1  GRA1        0.0000
   2810 C          87.1897   40.4130    0.0000 ca      1  GRA1        0.0000
   2811 C          88.4177   41.1220    0.0000 ca      1  GRA1        0.0000
   2812 C          90.8738   38.2860    0.0000 ca      1  GRA1        0.0000
   2813 C          89.6458   38.9950    0.0000 ca      1  GRA1        0.0000
   2814 C          89.6458   40.4130    0.0000 ca      1  GRA1        0.0000
   2815 C          90.8738   41.1220    0.0000 ca      1  GRA1        0.0000
   2816 C          93.3298   38.2860    0.0000 ca      1  GRA1        0.0000
   2817 C          92.1018   38.9950    0.0000 ca      1  GRA1        0.0000
   2818 C          92.1018   40.4130    0.0000 ca      1  GRA1        0.0000
   2819 C          93.3298   41.1220    0.0000 ca      1  GRA1        0.0000
   2820 C          95.7859   38.2860    0.0000 ca      1  GRA1        0.0000
   2821 C          94.5578   38.9950    0.0000 ca      1  GRA1        0.0000
   2822 C          94.5578   40.4130    0.0000 ca      1  GRA1        0.0000
   2823 C          95.7859   41.1220    0.0000 ca      1  GRA1        0.0000
   2824 C          98.2419   38.2860    0.0000 ca      1  GRA1        0.0000
   2825 C          97.0139   38.9950    0.0000 ca      1  GRA1        0.0000
   2826 C          97.0139   40.4130    0.0000 ca      1  GRA1        0.0000
   2827 C          98.2419   41.1220    0.0000 ca      1  GRA1        0.0000
   2828 C         100.6980   38.2860    0.0000 ca      1  GRA1        0.0000
   2829 C          99.4699   38.9950    0.0000 ca      1  GRA1        0.0000
   2830 C          99.4699   40.4130    0.0000 ca      1  GRA1        0.0000
   2831 C         100.6980   41.1220    0.0000 ca      1  GRA1        0.0000
   2832 C         103.1540   38.2860    0.0000 ca      1  GRA1        0.0000
   2833 C         101.9260   38.9950    0.0000 ca      1  GRA1        0.0000
   2834 C         101.9260   40.4130    0.0000 ca      1  GRA1        0.0000
   2835 C         103.1540   41.1220    0.0000 ca      1  GRA1        0.0000
   2836 C         105.6101   38.2860    0.0000 ca      1  GRA1        0.0000
   2837 C         104.3820   38.9950    0.0000 ca      1  GRA1        0.0000
   2838 C         104.3820   40.4130    0.0000 ca      1  GRA1        0.0000
   2839 C         105.6101   41.1220    0.0000 ca      1  GRA1        0.0000
   2840 C         108.0661   38.2860    0.0000 ca      1  GRA1        0.0000
   2841 C         106.8381   38.9950    0.0000 ca      1  GRA1        0.0000
   2842 C         106.8381   40.4130    0.0000 ca      1  GRA1        0.0000
   2843 C         108.0661   41.1220    0.0000 ca      1  GRA1        0.0000
   2844 C         110.5222   38.2860    0.0000 ca      1  GRA1        0.0000
   2845 C         109.2941   38.9950    0.0000 ca      1  GRA1        0.0000
   2846 C         109.2941   40.4130    0.0000 ca      1  GRA1        0.0000
   2847 C         110.5222   41.1220    0.0000 ca      1  GRA1        0.0000
   2848 C         112.9782   38.2860    0.0000 ca      1  GRA1        0.0000
   2849 C         111.7502   38.9950    0.0000 ca      1  GRA1        0.0000
   2850 C         111.7502   40.4130    0.0000 ca      1  GRA1        0.0000
   2851 C         112.9782   41.1220    0.0000 ca      1  GRA1        0.0000
   2852 C         115.4343   38.2860    0.0000 ca      1  GRA1        0.0000
   2853 C         114.2062   38.9950    0.0000 ca      1  GRA1        0.0000
   2854 C         114.2062   40.4130    0.0000 ca      1  GRA1        0.0000
   2855 C         115.4343   41.1220    0.0000 ca      1  GRA1        0.0000
   2856 C         117.8903   38.2860    0.0000 ca      1  GRA1        0.0000
   2857 C         116.6623   38.9950    0.0000 ca      1  GRA1        0.0000
   2858 C         116.6623   40.4130    0.0000 ca      1  GRA1        0.0000
   2859 C         117.8903   41.1220    0.0000 ca      1  GRA1        0.0000
   2860 C         120.3464   38.2860    0.0000 ca      1  GRA1        0.0000
   2861 C         119.1183   38.9950    0.0000 ca      1  GRA1        0.0000
   2862 C         119.1183   40.4130    0.0000 ca      1  GRA1        0.0000
   2863 C         120.3464   41.1220    0.0000 ca      1  GRA1        0.0000
   2864 C         122.8024   38.2860    0.0000 ca      1  GRA1        0.0000
   2865 C         121.5744   38.9950    0.0000 ca      1  GRA1        0.0000
   2866 C         121.5744   40.4130    0.0000 ca      1  GRA1        0.0000
   2867 C         122.8024   41.1220    0.0000 ca      1  GRA1        0.0000
   2868 C         125.2585   38.2860    0.0000 ca      1  GRA1        0.0000
   2869 C         124.0304   38.9950    0.0000 ca      1  GRA1        0.0000
   2870 C         124.0304   40.4130    0.0000 ca      1  GRA1        0.0000
   2871 C         125.2585   41.1220    0.0000 ca      1  GRA1        0.0000
   2872 C         127.7145   38.2860    0.0000 ca      1  GRA1        0.0000
   2873 C         126.4865   38.9950    0.0000 ca      1  GRA1        0.0000
   2874 C         126.4865   40.4130    0.0000 ca      1  GRA1        0.0000
   2875 C         127.7145   41.1220    0.0000 ca      1  GRA1        0.0000
   2876 C         130.1705   38.2860    0.0000 ca      1  GRA1        0.0000
   2877 C         128.9425   38.9950    0.0000 ca      1  GRA1        0.0000
   2878 C         128.9425   40.4130    0.0000 ca      1  GRA1        0.0000
   2879 C         130.1705   41.1220    0.0000 ca      1  GRA1        0.0000
   2880 C         132.6266   38.2860    0.0000 ca      1  GRA1        0.0000
   2881 C         131.3986   38.9950    0.0000 ca      1  GRA1        0.0000
   2882 C         131.3986   40.4130    0.0000 ca      1  GRA1        0.0000
   2883 C         132.6266   41.1220    0.0000 ca      1  GRA1        0.0000
   2884 C         135.0826   38.2860    0.0000 ca      1  GRA1        0.0000
   2885 C         133.8546   38.9950    0.0000 ca      1  GRA1        0.0000
   2886 C         133.8546   40.4130    0.0000 ca      1  GRA1        0.0000
   2887 C         135.0826   41.1220    0.0000 ca      1  GRA1        0.0000
   2888 C         137.5387   38.2860    0.0000 ca      1  GRA1        0.0000
   2889 C         136.3107   38.9950    0.0000 ca      1  GRA1        0.0000
   2890 C         136.3107   40.4130    0.0000 ca      1  GRA1        0.0000
   2891 C         137.5387   41.1220    0.0000 ca      1  GRA1        0.0000
   2892 C         139.9947   38.2860    0.0000 ca      1  GRA1        0.0000
   2893 C         138.7667   38.9950    0.0000 ca      1  GRA1        0.0000
   2894 C         138.7667   40.4130    0.0000 ca      1  GRA1        0.0000
   2895 C         139.9947   41.1220    0.0000 ca      1  GRA1        0.0000
   2896 C         142.4508   38.2860    0.0000 ca      1  GRA1        0.0000
   2897 C         141.2228   38.9950    0.0000 ca      1  GRA1        0.0000
   2898 C         141.2228   40.4130    0.0000 ca      1  GRA1        0.0000
   2899 C         142.4508   41.1220    0.0000 ca      1  GRA1        0.0000
   2900 C         144.9068   38.2860    0.0000 ca      1  GRA1        0.0000
   2901 C         143.6788   38.9950    0.0000 ca      1  GRA1        0.0000
   2902 C         143.6788   40.4130    0.0000 ca      1  GRA1        0.0000
   2903 C         144.9068   41.1220    0.0000 ca      1  GRA1        0.0000
   2904 C         147.3629   38.2860    0.0000 ca      1  GRA1        0.0000
   2905 C         146.1349   38.9950    0.0000 ca      1  GRA1        0.0000
   2906 C         146.1349   40.4130    0.0000 ca      1  GRA1        0.0000
   2907 C         147.3629   41.1220    0.0000 ca      1  GRA1        0.0000
   2908 C         149.8189   38.2860    0.0000 ca      1  GRA1        0.0000
   2909 C         148.5909   38.9950    0.0000 ca      1  GRA1        0.0000
   2910 C         148.5909   40.4130    0.0000 ca      1  GRA1        0.0000
   2911 C         149.8189   41.1220    0.0000 ca      1  GRA1        0.0000
   2912 C         152.2750   38.2860    0.0000 ca      1  GRA1        0.0000
   2913 C         151.0470   38.9950    0.0000 ca      1  GRA1        0.0000
   2914 C         151.0470   40.4130    0.0000 ca      1  GRA1        0.0000
   2915 C         152.2750   41.1220    0.0000 ca      1  GRA1        0.0000
   2916 C         154.7310   38.2860    0.0000 ca      1  GRA1        0.0000
   2917 C         153.5030   38.9950    0.0000 ca      1  GRA1        0.0000
   2918 C         153.5030   40.4130    0.0000 ca      1  GRA1        0.0000
   2919 C         154.7310   41.1220    0.0000 ca      1  GRA1        0.0000
   2920 C         157.1871   38.2860    0.0000 ca      1  GRA1        0.0000
   2921 C         155.9590   38.9950    0.0000 ca      1  GRA1        0.0000
   2922 C         155.9590   40.4130    0.0000 ca      1  GRA1        0.0000
   2923 C         157.1871   41.1220    0.0000 ca      1  GRA1        0.0000
   2924 C         159.6431   38.2860    0.0000 ca      1  GRA1        0.0000
   2925 C         158.4151   38.9950    0.0000 ca      1  GRA1        0.0000
   2926 C         158.4151   40.4130    0.0000 ca      1  GRA1        0.0000
   2927 C         159.6431   41.1220    0.0000 ca      1  GRA1        0.0000
   2928 C         162.0992   38.2860    0.0000 ca      1  GRA1        0.0000
   2929 C         160.8711   38.9950    0.0000 ca      1  GRA1        0.0000
   2930 C         160.8711   40.4130    0.0000 ca      1  GRA1        0.0000
   2931 C         162.0992   41.1220    0.0000 ca      1  GRA1        0.0000
   2932 C         164.5552   38.2860    0.0000 ca      1  GRA1        0.0000
   2933 C         163.3272   38.9950    0.0000 ca      1  GRA1        0.0000
   2934 C         163.3272   40.4130    0.0000 ca      1  GRA1        0.0000
   2935 C         164.5552   41.1220    0.0000 ca      1  GRA1        0.0000
   2936 C         167.0113   38.2860    0.0000 ca      1  GRA1        0.0000
   2937 C         165.7832   38.9950    0.0000 ca      1  GRA1        0.0000
   2938 C         165.7832   40.4130    0.0000 ca      1  GRA1        0.0000
   2939 C         167.0113   41.1220    0.0000 ca      1  GRA1        0.0000
   2940 C         169.4673   38.2860    0.0000 ca      1  GRA1        0.0000
   2941 C         168.2393   38.9950    0.0000 ca      1  GRA1        0.0000
   2942 C         168.2393   40.4130    0.0000 ca      1  GRA1        0.0000
   2943 C         169.4673   41.1220    0.0000 ca      1  GRA1        0.0000
   2944 C         171.9234   38.2860    0.0000 ca      1  GRA1        0.0000
   2945 C         170.6953   38.9950    0.0000 ca      1  GRA1        0.0000
   2946 C         170.6953   40.4130    0.0000 ca      1  GRA1        0.0000
   2947 C         171.9234   41.1220    0.0000 ca      1  GRA1        0.0000
   2948 C         174.3794   38.2860    0.0000 ca      1  GRA1        0.0000
   2949 C         173.1514   38.9950    0.0000 ca      1  GRA1        0.0000
   2950 C         173.1514   40.4130    0.0000 ca      1  GRA1        0.0000
   2951 C         174.3794   41.1220    0.0000 ca      1  GRA1        0.0000
   2952 C         176.8355   38.2860    0.0000 ca      1  GRA1        0.0000
   2953 C         175.6074   38.9950    0.0000 ca      1  GRA1        0.0000
   2954 C         175.6074   40.4130    0.0000 ca      1  GRA1        0.0000
   2955 C         176.8355   41.1220    0.0000 ca      1  GRA1        0.0000
   2956 C         179.2915   38.2860    0.0000 ca      1  GRA1        0.0000
   2957 C         178.0635   38.9950    0.0000 ca      1  GRA1        0.0000
   2958 C         178.0635   40.4130    0.0000 ca      1  GRA1        0.0000
   2959 C         179.2915   41.1220    0.0000 ca      1  GRA1        0.0000
   2960 C           0.0000   42.5400    0.0000 ca      1  GRA1        0.0000
   2961 C          -1.2280   43.2490    0.0000 ca      1  GRA1        0.0000
   2962 C          -1.2280   44.6670    0.0000 ca      1  GRA1        0.0000
   2963 C           0.0000   45.3760    0.0000 ca      1  GRA1        0.0000
   2964 C           2.4560   42.5400    0.0000 ca      1  GRA1        0.0000
   2965 C           1.2280   43.2490    0.0000 ca      1  GRA1        0.0000
   2966 C           1.2280   44.6670    0.0000 ca      1  GRA1        0.0000
   2967 C           2.4560   45.3760    0.0000 ca      1  GRA1        0.0000
   2968 C           4.9121   42.5400    0.0000 ca      1  GRA1        0.0000
   2969 C           3.6841   43.2490    0.0000 ca      1  GRA1        0.0000
   2970 C           3.6841   44.6670    0.0000 ca      1  GRA1        0.0000
   2971 C           4.9121   45.3760    0.0000 ca      1  GRA1        0.0000
   2972 C           7.3681   42.5400    0.0000 ca      1  GRA1        0.0000
   2973 C           6.1401   43.2490    0.0000 ca      1  GRA1        0.0000
   2974 C           6.1401   44.6670    0.0000 ca      1  GRA1        0.0000
   2975 C           7.3681   45.3760    0.0000 ca      1  GRA1        0.0000
   2976 C           9.8242   42.5400    0.0000 ca      1  GRA1        0.0000
   2977 C           8.5962   43.2490    0.0000 ca      1  GRA1        0.0000
   2978 C           8.5962   44.6670    0.0000 ca      1  GRA1        0.0000
   2979 C           9.8242   45.3760    0.0000 ca      1  GRA1        0.0000
   2980 C          12.2802   42.5400    0.0000 ca      1  GRA1        0.0000
   2981 C          11.0522   43.2490    0.0000 ca      1  GRA1        0.0000
   2982 C          11.0522   44.6670    0.0000 ca      1  GRA1        0.0000
   2983 C          12.2802   45.3760    0.0000 ca      1  GRA1        0.0000
   2984 C          14.7363   42.5400    0.0000 ca      1  GRA1        0.0000
   2985 C          13.5083   43.2490    0.0000 ca      1  GRA1        0.0000
   2986 C          13.5083   44.6670    0.0000 ca      1  GRA1        0.0000
   2987 C          14.7363   45.3760    0.0000 ca      1  GRA1        0.0000
   2988 C          17.1923   42.5400    0.0000 ca      1  GRA1        0.0000
   2989 C          15.9643   43.2490    0.0000 ca      1  GRA1        0.0000
   2990 C          15.9643   44.6670    0.0000 ca      1  GRA1        0.0000
   2991 C          17.1923   45.3760    0.0000 ca      1  GRA1        0.0000
   2992 C          19.6484   42.5400    0.0000 ca      1  GRA1        0.0000
   2993 C          18.4204   43.2490    0.0000 ca      1  GRA1        0.0000
   2994 C          18.4204   44.6670    0.0000 ca      1  GRA1        0.0000
   2995 C          19.6484   45.3760    0.0000 ca      1  GRA1        0.0000
   2996 C          22.1044   42.5400    0.0000 ca      1  GRA1        0.0000
   2997 C          20.8764   43.2490    0.0000 ca      1  GRA1        0.0000
   2998 C          20.8764   44.6670    0.0000 ca      1  GRA1        0.0000
   2999 C          22.1044   45.3760    0.0000 ca      1  GRA1        0.0000
   3000 C          24.5605   42.5400    0.0000 ca      1  GRA1        0.0000
   3001 C          23.3325   43.2490    0.0000 ca      1  GRA1        0.0000
   3002 C          23.3325   44.6670    0.0000 ca      1  GRA1        0.0000
   3003 C          24.5605   45.3760    0.0000 ca      1  GRA1        0.0000
   3004 C          27.0165   42.5400    0.0000 ca      1  GRA1        0.0000
   3005 C          25.7885   43.2490    0.0000 ca      1  GRA1        0.0000
   3006 C          25.7885   44.6670    0.0000 ca      1  GRA1        0.0000
   3007 C          27.0165   45.3760    0.0000 ca      1  GRA1        0.0000
   3008 C          29.4726   42.5400    0.0000 ca      1  GRA1        0.0000
   3009 C          28.2446   43.2490    0.0000 ca      1  GRA1        0.0000
   3010 C          28.2446   44.6670    0.0000 ca      1  GRA1        0.0000
   3011 C          29.4726   45.3760    0.0000 ca      1  GRA1        0.0000
   3012 C          31.9286   42.5400    0.0000 ca      1  GRA1        0.0000
   3013 C          30.7006   43.2490    0.0000 ca      1  GRA1        0.0000
   3014 C          30.7006   44.6670    0.0000 ca      1  GRA1        0.0000
   3015 C          31.9286   45.3760    0.0000 ca      1  GRA1        0.0000
   3016 C          34.3847   42.5400    0.0000 ca      1  GRA1        0.0000
   3017 C          33.1566   43.2490    0.0000 ca      1  GRA1        0.0000
   3018 C          33.1566   44.6670    0.0000 ca      1  GRA1        0.0000
   3019 C          34.3847   45.3760    0.0000 ca      1  GRA1        0.0000
   3020 C          36.8407   42.5400    0.0000 ca      1  GRA1        0.0000
   3021 C          35.6127   43.2490    0.0000 ca      1  GRA1        0.0000
   3022 C          35.6127   44.6670    0.0000 ca      1  GRA1        0.0000
   3023 C          36.8407   45.3760    0.0000 ca      1  GRA1        0.0000
   3024 C          39.2968   42.5400    0.0000 ca      1  GRA1        0.0000
   3025 C          38.0687   43.2490    0.0000 ca      1  GRA1        0.0000
   3026 C          38.0687   44.6670    0.0000 ca      1  GRA1        0.0000
   3027 C          39.2968   45.3760    0.0000 ca      1  GRA1        0.0000
   3028 C          41.7528   42.5400    0.0000 ca      1  GRA1        0.0000
   3029 C          40.5248   43.2490    0.0000 ca      1  GRA1        0.0000
   3030 C          40.5248   44.6670    0.0000 ca      1  GRA1        0.0000
   3031 C          41.7528   45.3760    0.0000 ca      1  GRA1        0.0000
   3032 C          44.2089   42.5400    0.0000 ca      1  GRA1        0.0000
   3033 C          42.9808   43.2490    0.0000 ca      1  GRA1        0.0000
   3034 C          42.9808   44.6670    0.0000 ca      1  GRA1        0.0000
   3035 C          44.2089   45.3760    0.0000 ca      1  GRA1        0.0000
   3036 C          46.6649   42.5400    0.0000 ca      1  GRA1        0.0000
   3037 C          45.4369   43.2490    0.0000 ca      1  GRA1        0.0000
   3038 C          45.4369   44.6670    0.0000 ca      1  GRA1        0.0000
   3039 C          46.6649   45.3760    0.0000 ca      1  GRA1        0.0000
   3040 C          49.1210   42.5400    0.0000 ca      1  GRA1        0.0000
   3041 C          47.8929   43.2490    0.0000 ca      1  GRA1        0.0000
   3042 C          47.8929   44.6670    0.0000 ca      1  GRA1        0.0000
   3043 C          49.1210   45.3760    0.0000 ca      1  GRA1        0.0000
   3044 C          51.5770   42.5400    0.0000 ca      1  GRA1        0.0000
   3045 C          50.3490   43.2490    0.0000 ca      1  GRA1        0.0000
   3046 C          50.3490   44.6670    0.0000 ca      1  GRA1        0.0000
   3047 C          51.5770   45.3760    0.0000 ca      1  GRA1        0.0000
   3048 C          54.0331   42.5400    0.0000 ca      1  GRA1        0.0000
   3049 C          52.8050   43.2490    0.0000 ca      1  GRA1        0.0000
   3050 C          52.8050   44.6670    0.0000 ca      1  GRA1        0.0000
   3051 C          54.0331   45.3760    0.0000 ca      1  GRA1        0.0000
   3052 C          56.4891   42.5400    0.0000 ca      1  GRA1        0.0000
   3053 C          55.2611   43.2490    0.0000 ca      1  GRA1        0.0000
   3054 C          55.2611   44.6670    0.0000 ca      1  GRA1        0.0000
   3055 C          56.4891   45.3760    0.0000 ca      1  GRA1        0.0000
   3056 C          58.9452   42.5400    0.0000 ca      1  GRA1        0.0000
   3057 C          57.7171   43.2490    0.0000 ca      1  GRA1        0.0000
   3058 C          57.7171   44.6670    0.0000 ca      1  GRA1        0.0000
   3059 C          58.9452   45.3760    0.0000 ca      1  GRA1        0.0000
   3060 C          61.4012   42.5400    0.0000 ca      1  GRA1        0.0000
   3061 C          60.1732   43.2490    0.0000 ca      1  GRA1        0.0000
   3062 C          60.1732   44.6670    0.0000 ca      1  GRA1        0.0000
   3063 C          61.4012   45.3760    0.0000 ca      1  GRA1        0.0000
   3064 C          63.8573   42.5400    0.0000 ca      1  GRA1        0.0000
   3065 C          62.6292   43.2490    0.0000 ca      1  GRA1        0.0000
   3066 C          62.6292   44.6670    0.0000 ca      1  GRA1        0.0000
   3067 C          63.8573   45.3760    0.0000 ca      1  GRA1        0.0000
   3068 C          66.3133   42.5400    0.0000 ca      1  GRA1        0.0000
   3069 C          65.0853   43.2490    0.0000 ca      1  GRA1        0.0000
   3070 C          65.0853   44.6670    0.0000 ca      1  GRA1        0.0000
   3071 C          66.3133   45.3760    0.0000 ca      1  GRA1        0.0000
   3072 C          68.7693   42.5400    0.0000 ca      1  GRA1        0.0000
   3073 C          67.5413   43.2490    0.0000 ca      1  GRA1        0.0000
   3074 C          67.5413   44.6670    0.0000 ca      1  GRA1        0.0000
   3075 C          68.7693   45.3760    0.0000 ca      1  GRA1        0.0000
   3076 C          71.2254   42.5400    0.0000 ca      1  GRA1        0.0000
   3077 C          69.9974   43.2490    0.0000 ca      1  GRA1        0.0000
   3078 C          69.9974   44.6670    0.0000 ca      1  GRA1        0.0000
   3079 C          71.2254   45.3760    0.0000 ca      1  GRA1        0.0000
   3080 C          73.6814   42.5400    0.0000 ca      1  GRA1        0.0000
   3081 C          72.4534   43.2490    0.0000 ca      1  GRA1        0.0000
   3082 C          72.4534   44.6670    0.0000 ca      1  GRA1        0.0000
   3083 C          73.6814   45.3760    0.0000 ca      1  GRA1        0.0000
   3084 C          76.1375   42.5400    0.0000 ca      1  GRA1        0.0000
   3085 C          74.9095   43.2490    0.0000 ca      1  GRA1        0.0000
   3086 C          74.9095   44.6670    0.0000 ca      1  GRA1        0.0000
   3087 C          76.1375   45.3760    0.0000 ca      1  GRA1        0.0000
   3088 C          78.5935   42.5400    0.0000 ca      1  GRA1        0.0000
   3089 C          77.3655   43.2490    0.0000 ca      1  GRA1        0.0000
   3090 C          77.3655   44.6670    0.0000 ca      1  GRA1        0.0000
   3091 C          78.5935   45.3760    0.0000 ca      1  GRA1        0.0000
   3092 C          81.0496   42.5400    0.0000 ca      1  GRA1        0.0000
   3093 C          79.8216   43.2490    0.0000 ca      1  GRA1        0.0000
   3094 C          79.8216   44.6670    0.0000 ca      1  GRA1        0.0000
   3095 C          81.0496   45.3760    0.0000 ca      1  GRA1        0.0000
   3096 C          83.5056   42.5400    0.0000 ca      1  GRA1        0.0000
   3097 C          82.2776   43.2490    0.0000 ca      1  GRA1        0.0000
   3098 C          82.2776   44.6670    0.0000 ca      1  GRA1        0.0000
   3099 C          83.5056   45.3760    0.0000 ca      1  GRA1        0.0000
   3100 C          85.9617   42.5400    0.0000 ca      1  GRA1        0.0000
   3101 C          84.7337   43.2490    0.0000 ca      1  GRA1        0.0000
   3102 C          84.7337   44.6670    0.0000 ca      1  GRA1        0.0000
   3103 C          85.9617   45.3760    0.0000 ca      1  GRA1        0.0000
   3104 C          88.4177   42.5400    0.0000 ca      1  GRA1        0.0000
   3105 C          87.1897   43.2490    0.0000 ca      1  GRA1        0.0000
   3106 C          87.1897   44.6670    0.0000 ca      1  GRA1        0.0000
   3107 C          88.4177   45.3760    0.0000 ca      1  GRA1        0.0000
   3108 C          90.8738   42.5400    0.0000 ca      1  GRA1        0.0000
   3109 C          89.6458   43.2490    0.0000 ca      1  GRA1        0.0000
   3110 C          89.6458   44.6670    0.0000 ca      1  GRA1        0.0000
   3111 C          90.8738   45.3760    0.0000 ca      1  GRA1        0.0000
   3112 C          93.3298   42.5400    0.0000 ca      1  GRA1        0.0000
   3113 C          92.1018   43.2490    0.0000 ca      1  GRA1        0.0000
   3114 C          92.1018   44.6670    0.0000 ca      1  GRA1        0.0000
   3115 C          93.3298   45.3760    0.0000 ca      1  GRA1        0.0000
   3116 C          95.7859   42.5400    0.0000 ca      1  GRA1        0.0000
   3117 C          94.5578   43.2490    0.0000 ca      1  GRA1        0.0000
   3118 C          94.5578   44.6670    0.0000 ca      1  GRA1        0.0000
   3119 C          95.7859   45.3760    0.0000 ca      1  GRA1        0.0000
   3120 C          98.2419   42.5400    0.0000 ca      1  GRA1        0.0000
   3121 C          97.0139   43.2490    0.0000 ca      1  GRA1        0.0000
   3122 C          97.0139   44.6670    0.0000 ca      1  GRA1        0.0000
   3123 C          98.2419   45.3760    0.0000 ca      1  GRA1        0.0000
   3124 C         100.6980   42.5400    0.0000 ca      1  GRA1        0.0000
   3125 C          99.4699   43.2490    0.0000 ca      1  GRA1        0.0000
   3126 C          99.4699   44.6670    0.0000 ca      1  GRA1        0.0000
   3127 C         100.6980   45.3760    0.0000 ca      1  GRA1        0.0000
   3128 C         103.1540   42.5400    0.0000 ca      1  GRA1        0.0000
   3129 C         101.9260   43.2490    0.0000 ca      1  GRA1        0.0000
   3130 C         101.9260   44.6670    0.0000 ca      1  GRA1        0.0000
   3131 C         103.1540   45.3760    0.0000 ca      1  GRA1        0.0000
   3132 C         105.6101   42.5400    0.0000 ca      1  GRA1        0.0000
   3133 C         104.3820   43.2490    0.0000 ca      1  GRA1        0.0000
   3134 C         104.3820   44.6670    0.0000 ca      1  GRA1        0.0000
   3135 C         105.6101   45.3760    0.0000 ca      1  GRA1        0.0000
   3136 C         108.0661   42.5400    0.0000 ca      1  GRA1        0.0000
   3137 C         106.8381   43.2490    0.0000 ca      1  GRA1        0.0000
   3138 C         106.8381   44.6670    0.0000 ca      1  GRA1        0.0000
   3139 C         108.0661   45.3760    0.0000 ca      1  GRA1        0.0000
   3140 C         110.5222   42.5400    0.0000 ca      1  GRA1        0.0000
   3141 C         109.2941   43.2490    0.0000 ca      1  GRA1        0.0000
   3142 C         109.2941   44.6670    0.0000 ca      1  GRA1        0.0000
   3143 C         110.5222   45.3760    0.0000 ca      1  GRA1        0.0000
   3144 C         112.9782   42.5400    0.0000 ca      1  GRA1        0.0000
   3145 C         111.7502   43.2490    0.0000 ca      1  GRA1        0.0000
   3146 C         111.7502   44.6670    0.0000 ca      1  GRA1        0.0000
   3147 C         112.9782   45.3760    0.0000 ca      1  GRA1        0.0000
   3148 C         115.4343   42.5400    0.0000 ca      1  GRA1        0.0000
   3149 C         114.2062   43.2490    0.0000 ca      1  GRA1        0.0000
   3150 C         114.2062   44.6670    0.0000 ca      1  GRA1        0.0000
   3151 C         115.4343   45.3760    0.0000 ca      1  GRA1        0.0000
   3152 C         117.8903   42.5400    0.0000 ca      1  GRA1        0.0000
   3153 C         116.6623   43.2490    0.0000 ca      1  GRA1        0.0000
   3154 C         116.6623   44.6670    0.0000 ca      1  GRA1        0.0000
   3155 C         117.8903   45.3760    0.0000 ca      1  GRA1        0.0000
   3156 C         120.3464   42.5400    0.0000 ca      1  GRA1        0.0000
   3157 C         119.1183   43.2490    0.0000 ca      1  GRA1        0.0000
   3158 C         119.1183   44.6670    0.0000 ca      1  GRA1        0.0000
   3159 C         120.3464   45.3760    0.0000 ca      1  GRA1        0.0000
   3160 C         122.8024   42.5400    0.0000 ca      1  GRA1        0.0000
   3161 C         121.5744   43.2490    0.0000 ca      1  GRA1        0.0000
   3162 C         121.5744   44.6670    0.0000 ca      1  GRA1        0.0000
   3163 C         122.8024   45.3760    0.0000 ca      1  GRA1        0.0000
   3164 C         125.2585   42.5400    0.0000 ca      1  GRA1        0.0000
   3165 C         124.0304   43.2490    0.0000 ca      1  GRA1        0.0000
   3166 C         124.0304   44.6670    0.0000 ca      1  GRA1        0.0000
   3167 C         125.2585   45.3760    0.0000 ca      1  GRA1        0.0000
   3168 C         127.7145   42.5400    0.0000 ca      1  GRA1        0.0000
   3169 C         126.4865   43.2490    0.0000 ca      1  GRA1        0.0000
   3170 C         126.4865   44.6670    0.0000 ca      1  GRA1        0.0000
   3171 C         127.7145   45.3760    0.0000 ca      1  GRA1        0.0000
   3172 C         130.1705   42.5400    0.0000 ca      1  GRA1        0.0000
   3173 C         128.9425   43.2490    0.0000 ca      1  GRA1        0.0000
   3174 C         128.9425   44.6670    0.0000 ca      1  GRA1        0.0000
   3175 C         130.1705   45.3760    0.0000 ca      1  GRA1        0.0000
   3176 C         132.6266   42.5400    0.0000 ca      1  GRA1        0.0000
   3177 C         131.3986   43.2490    0.0000 ca      1  GRA1        0.0000
   3178 C         131.3986   44.6670    0.0000 ca      1  GRA1        0.0000
   3179 C         132.6266   45.3760    0.0000 ca      1  GRA1        0.0000
   3180 C         135.0826   42.5400    0.0000 ca      1  GRA1        0.0000
   3181 C         133.8546   43.2490    0.0000 ca      1  GRA1        0.0000
   3182 C         133.8546   44.6670    0.0000 ca      1  GRA1        0.0000
   3183 C         135.0826   45.3760    0.0000 ca      1  GRA1        0.0000
   3184 C         137.5387   42.5400    0.0000 ca      1  GRA1        0.0000
   3185 C         136.3107   43.2490    0.0000 ca      1  GRA1        0.0000
   3186 C         136.3107   44.6670    0.0000 ca      1  GRA1        0.0000
   3187 C         137.5387   45.3760    0.0000 ca      1  GRA1        0.0000
   3188 C         139.9947   42.5400    0.0000 ca      1  GRA1        0.0000
   3189 C         138.7667   43.2490    0.0000 ca      1  GRA1        0.0000
   3190 C         138.7667   44.6670    0.0000 ca      1  GRA1        0.0000
   3191 C         139.9947   45.3760    0.0000 ca      1  GRA1        0.0000
   3192 C         142.4508   42.5400    0.0000 ca      1  GRA1        0.0000
   3193 C         141.2228   43.2490    0.0000 ca      1  GRA1        0.0000
   3194 C         141.2228   44.6670    0.0000 ca      1  GRA1        0.0000
   3195 C         142.4508   45.3760    0.0000 ca      1  GRA1        0.0000
   3196 C         144.9068   42.5400    0.0000 ca      1  GRA1        0.0000
   3197 C         143.6788   43.2490    0.0000 ca      1  GRA1        0.0000
   3198 C         143.6788   44.6670    0.0000 ca      1  GRA1        0.0000
   3199 C         144.9068   45.3760    0.0000 ca      1  GRA1        0.0000
   3200 C         147.3629   42.5400    0.0000 ca      1  GRA1        0.0000
   3201 C         146.1349   43.2490    0.0000 ca      1  GRA1        0.0000
   3202 C         146.1349   44.6670    0.0000 ca      1  GRA1        0.0000
   3203 C         147.3629   45.3760    0.0000 ca      1  GRA1        0.0000
   3204 C         149.8189   42.5400    0.0000 ca      1  GRA1        0.0000
   3205 C         148.5909   43.2490    0.0000 ca      1  GRA1        0.0000
   3206 C         148.5909   44.6670    0.0000 ca      1  GRA1        0.0000
   3207 C         149.8189   45.3760    0.0000 ca      1  GRA1        0.0000
   3208 C         152.2750   42.5400    0.0000 ca      1  GRA1        0.0000
   3209 C         151.0470   43.2490    0.0000 ca      1  GRA1        0.0000
   3210 C         151.0470   44.6670    0.0000 ca      1  GRA1        0.0000
   3211 C         152.2750   45.3760    0.0000 ca      1  GRA1        0.0000
   3212 C         154.7310   42.5400    0.0000 ca      1  GRA1        0.0000
   3213 C         153.5030   43.2490    0.0000 ca      1  GRA1        0.0000
   3214 C         153.5030   44.6670    0.0000 ca      1  GRA1        0.0000
   3215 C         154.7310   45.3760    0.0000 ca      1  GRA1        0.0000
   3216 C         157.1871   42.5400    0.0000 ca      1  GRA1        0.0000
   3217 C         155.9590   43.2490    0.0000 ca      1  GRA1        0.0000
   3218 C         155.9590   44.6670    0.0000 ca      1  GRA1        0.0000
   3219 C         157.1871   45.3760    0.0000 ca      1  GRA1        0.0000
   3220 C         159.6431   42.5400    0.0000 ca      1  GRA1        0.0000
   3221 C         158.4151   43.2490    0.0000 ca      1  GRA1        0.0000
   3222 C         158.4151   44.6670    0.0000 ca      1  GRA1        0.0000
   3223 C         159.6431   45.3760    0.0000 ca      1  GRA1        0.0000
   3224 C         162.0992   42.5400    0.0000 ca      1  GRA1        0.0000
   3225 C         160.8711   43.2490    0.0000 ca      1  GRA1        0.0000
   3226 C         160.8711   44.6670    0.0000 ca      1  GRA1        0.0000
   3227 C         162.0992   45.3760    0.0000 ca      1  GRA1        0.0000
   3228 C         164.5552   42.5400    0.0000 ca      1  GRA1        0.0000
   3229 C         163.3272   43.2490    0.0000 ca      1  GRA1        0.0000
   3230 C         163.3272   44.6670    0.0000 ca      1  GRA1        0.0000
   3231 C         164.5552   45.3760    0.0000 ca      1  GRA1        0.0000
   3232 C         167.0113   42.5400    0.0000 ca      1  GRA1        0.0000
   3233 C         165.7832   43.2490    0.0000 ca      1  GRA1        0.0000
   3234 C         165.7832   44.6670    0.0000 ca      1  GRA1        0.0000
   3235 C         167.0113   45.3760    0.0000 ca      1  GRA1        0.0000
   3236 C         169.4673   42.5400    0.0000 ca      1  GRA1        0.0000
   3237 C         168.2393   43.2490    0.0000 ca      1  GRA1        0.0000
   3238 C         168.2393   44.6670    0.0000 ca      1  GRA1        0.0000
   3239 C         169.4673   45.3760    0.0000 ca      1  GRA1        0.0000
   3240 C         171.9234   42.5400    0.0000 ca      1  GRA1        0.0000
   3241 C         170.6953   43.2490    0.0000 ca      1  GRA1        0.0000
   3242 C         170.6953   44.6670    0.0000 ca      1  GRA1        0.0000
   3243 C         171.9234   45.3760    0.0000 ca      1  GRA1        0.0000
   3244 C         174.3794   42.5400    0.0000 ca      1  GRA1        0.0000
   3245 C         173.1514   43.2490    0.0000 ca      1  GRA1        0.0000
   3246 C         173.1514   44.6670    0.0000 ca      1  GRA1        0.0000
   3247 C         174.3794   45.3760    0.0000 ca      1  GRA1        0.0000
   3248 C         176.8355   42.5400    0.0000 ca      1  GRA1        0.0000
   3249 C         175.6074   43.2490    0.0000 ca      1  GRA1        0.0000
   3250 C         175.6074   44.6670    0.0000 ca      1  GRA1        0.0000
   3251 C         176.8355   45.3760    0.0000 ca      1  GRA1        0.0000
   3252 C         179.2915   42.5400    0.0000 ca      1  GRA1        0.0000
   3253 C         178.0635   43.2490    0.0000 ca      1  GRA1        0.0000
   3254 C         178.0635   44.6670    0.0000 ca      1  GRA1        0.0000
   3255 C         179.2915   45.3760    0.0000 ca      1  GRA1        0.0000
   3256 C           0.0000   46.7940    0.0000 ca      1  GRA1        0.0000
   3257 C          -1.2280   47.5030    0.0000 ca      1  GRA1        0.0000
   3258 C          -1.2280   48.9210    0.0000 ca      1  GRA1        0.0000
   3259 C           0.0000   49.6300    0.0000 ca      1  GRA1        0.0000
   3260 C           2.4560   46.7940    0.0000 ca      1  GRA1        0.0000
   3261 C           1.2280   47.5030    0.0000 ca      1  GRA1        0.0000
   3262 C           1.2280   48.9210    0.0000 ca      1  GRA1        0.0000
   3263 C           2.4560   49.6300    0.0000 ca      1  GRA1        0.0000
   3264 C           4.9121   46.7940    0.0000 ca      1  GRA1        0.0000
   3265 C           3.6841   47.5030    0.0000 ca      1  GRA1        0.0000
   3266 C           3.6841   48.9210    0.0000 ca      1  GRA1        0.0000
   3267 C           4.9121   49.6300    0.0000 ca      1  GRA1        0.0000
   3268 C           7.3681   46.7940    0.0000 ca      1  GRA1        0.0000
   3269 C           6.1401   47.5030    0.0000 ca      1  GRA1        0.0000
   3270 C           6.1401   48.9210    0.0000 ca      1  GRA1        0.0000
   3271 C           7.3681   49.6300    0.0000 ca      1  GRA1        0.0000
   3272 C           9.8242   46.7940    0.0000 ca      1  GRA1        0.0000
   3273 C           8.5962   47.5030    0.0000 ca      1  GRA1        0.0000
   3274 C           8.5962   48.9210    0.0000 ca      1  GRA1        0.0000
   3275 C           9.8242   49.6300    0.0000 ca      1  GRA1        0.0000
   3276 C          12.2802   46.7940    0.0000 ca      1  GRA1        0.0000
   3277 C          11.0522   47.5030    0.0000 ca      1  GRA1        0.0000
   3278 C          11.0522   48.9210    0.0000 ca      1  GRA1        0.0000
   3279 C          12.2802   49.6300    0.0000 ca      1  GRA1        0.0000
   3280 C          14.7363   46.7940    0.0000 ca      1  GRA1        0.0000
   3281 C          13.5083   47.5030    0.0000 ca      1  GRA1        0.0000
   3282 C          13.5083   48.9210    0.0000 ca      1  GRA1        0.0000
   3283 C          14.7363   49.6300    0.0000 ca      1  GRA1        0.0000
   3284 C          17.1923   46.7940    0.0000 ca      1  GRA1        0.0000
   3285 C          15.9643   47.5030    0.0000 ca      1  GRA1        0.0000
   3286 C          15.9643   48.9210    0.0000 ca      1  GRA1        0.0000
   3287 C          17.1923   49.6300    0.0000 ca      1  GRA1        0.0000
   3288 C          19.6484   46.7940    0.0000 ca      1  GRA1        0.0000
   3289 C          18.4204   47.5030    0.0000 ca      1  GRA1        0.0000
   3290 C          18.4204   48.9210    0.0000 ca      1  GRA1        0.0000
   3291 C          19.6484   49.6300    0.0000 ca      1  GRA1        0.0000
   3292 C          22.1044   46.7940    0.0000 ca      1  GRA1        0.0000
   3293 C          20.8764   47.5030    0.0000 ca      1  GRA1        0.0000
   3294 C          20.8764   48.9210    0.0000 ca      1  GRA1        0.0000
   3295 C          22.1044   49.6300    0.0000 ca      1  GRA1        0.0000
   3296 C          24.5605   46.7940    0.0000 ca      1  GRA1        0.0000
   3297 C          23.3325   47.5030    0.0000 ca      1  GRA1        0.0000
   3298 C          23.3325   48.9210    0.0000 ca      1  GRA1        0.0000
   3299 C          24.5605   49.6300    0.0000 ca      1  GRA1        0.0000
   3300 C          27.0165   46.7940    0.0000 ca      1  GRA1        0.0000
   3301 C          25.7885   47.5030    0.0000 ca      1  GRA1        0.0000
   3302 C          25.7885   48.9210    0.0000 ca      1  GRA1        0.0000
   3303 C          27.0165   49.6300    0.0000 ca      1  GRA1        0.0000
   3304 C          29.4726   46.7940    0.0000 ca      1  GRA1        0.0000
   3305 C          28.2446   47.5030    0.0000 ca      1  GRA1        0.0000
   3306 C          28.2446   48.9210    0.0000 ca      1  GRA1        0.0000
   3307 C          29.4726   49.6300    0.0000 ca      1  GRA1        0.0000
   3308 C          31.9286   46.7940    0.0000 ca      1  GRA1        0.0000
   3309 C          30.7006   47.5030    0.0000 ca      1  GRA1        0.0000
   3310 C          30.7006   48.9210    0.0000 ca      1  GRA1        0.0000
   3311 C          31.9286   49.6300    0.0000 ca      1  GRA1        0.0000
   3312 C          34.3847   46.7940    0.0000 ca      1  GRA1        0.0000
   3313 C          33.1566   47.5030    0.0000 ca      1  GRA1        0.0000
   3314 C          33.1566   48.9210    0.0000 ca      1  GRA1        0.0000
   3315 C          34.3847   49.6300    0.0000 ca      1  GRA1        0.0000
   3316 C          36.8407   46.7940    0.0000 ca      1  GRA1        0.0000
   3317 C          35.6127   47.5030    0.0000 ca      1  GRA1        0.0000
   3318 C          35.6127   48.9210    0.0000 ca      1  GRA1        0.0000
   3319 C          36.8407   49.6300    0.0000 ca      1  GRA1        0.0000
   3320 C          39.2968   46.7940    0.0000 ca      1  GRA1        0.0000
   3321 C          38.0687   47.5030    0.0000 ca      1  GRA1        0.0000
   3322 C          38.0687   48.9210    0.0000 ca      1  GRA1        0.0000
   3323 C          39.2968   49.6300    0.0000 ca      1  GRA1        0.0000
   3324 C          41.7528   46.7940    0.0000 ca      1  GRA1        0.0000
   3325 C          40.5248   47.5030    0.0000 ca      1  GRA1        0.0000
   3326 C          40.5248   48.9210    0.0000 ca      1  GRA1        0.0000
   3327 C          41.7528   49.6300    0.0000 ca      1  GRA1        0.0000
   3328 C          44.2089   46.7940    0.0000 ca      1  GRA1        0.0000
   3329 C          42.9808   47.5030    0.0000 ca      1  GRA1        0.0000
   3330 C          42.9808   48.9210    0.0000 ca      1  GRA1        0.0000
   3331 C          44.2089   49.6300    0.0000 ca      1  GRA1        0.0000
   3332 C          46.6649   46.7940    0.0000 ca      1  GRA1        0.0000
   3333 C          45.4369   47.5030    0.0000 ca      1  GRA1        0.0000
   3334 C          45.4369   48.9210    0.0000 ca      1  GRA1        0.0000
   3335 C          46.6649   49.6300    0.0000 ca      1  GRA1        0.0000
   3336 C          49.1210   46.7940    0.0000 ca      1  GRA1        0.0000
   3337 C          47.8929   47.5030    0.0000 ca      1  GRA1        0.0000
   3338 C          47.8929   48.9210    0.0000 ca      1  GRA1        0.0000
   3339 C          49.1210   49.6300    0.0000 ca      1  GRA1        0.0000
   3340 C          51.5770   46.7940    0.0000 ca      1  GRA1        0.0000
   3341 C          50.3490   47.5030    0.0000 ca      1  GRA1        0.0000
   3342 C          50.3490   48.9210    0.0000 ca      1  GRA1        0.0000
   3343 C          51.5770   49.6300    0.0000 ca      1  GRA1        0.0000
   3344 C          54.0331   46.7940    0.0000 ca      1  GRA1        0.0000
   3345 C          52.8050   47.5030    0.0000 ca      1  GRA1        0.0000
   3346 C          52.8050   48.9210    0.0000 ca      1  GRA1        0.0000
   3347 C          54.0331   49.6300    0.0000 ca      1  GRA1        0.0000
   3348 C          56.4891   46.7940    0.0000 ca      1  GRA1        0.0000
   3349 C          55.2611   47.5030    0.0000 ca      1  GRA1        0.0000
   3350 C          55.2611   48.9210    0.0000 ca      1  GRA1        0.0000
   3351 C          56.4891   49.6300    0.0000 ca      1  GRA1        0.0000
   3352 C          58.9452   46.7940    0.0000 ca      1  GRA1        0.0000
   3353 C          57.7171   47.5030    0.0000 ca      1  GRA1        0.0000
   3354 C          57.7171   48.9210    0.0000 ca      1  GRA1        0.0000
   3355 C          58.9452   49.6300    0.0000 ca      1  GRA1        0.0000
   3356 C          61.4012   46.7940    0.0000 ca      1  GRA1        0.0000
   3357 C          60.1732   47.5030    0.0000 ca      1  GRA1        0.0000
   3358 C          60.1732   48.9210    0.0000 ca      1  GRA1        0.0000
   3359 C          61.4012   49.6300    0.0000 ca      1  GRA1        0.0000
   3360 C          63.8573   46.7940    0.0000 ca      1  GRA1        0.0000
   3361 C          62.6292   47.5030    0.0000 ca      1  GRA1        0.0000
   3362 C          62.6292   48.9210    0.0000 ca      1  GRA1        0.0000
   3363 C          63.8573   49.6300    0.0000 ca      1  GRA1        0.0000
   3364 C          66.3133   46.7940    0.0000 ca      1  GRA1        0.0000
   3365 C          65.0853   47.5030    0.0000 ca      1  GRA1        0.0000
   3366 C          65.0853   48.9210    0.0000 ca      1  GRA1        0.0000
   3367 C          66.3133   49.6300    0.0000 ca      1  GRA1        0.0000
   3368 C          68.7693   46.7940    0.0000 ca      1  GRA1        0.0000
   3369 C          67.5413   47.5030    0.0000 ca      1  GRA1        0.0000
   3370 C          67.5413   48.9210    0.0000 ca      1  GRA1        0.0000
   3371 C          68.7693   49.6300    0.0000 ca      1  GRA1        0.0000
   3372 C          71.2254   46.7940    0.0000 ca      1  GRA1        0.0000
   3373 C          69.9974   47.5030    0.0000 ca      1  GRA1        0.0000
   3374 C          69.9974   48.9210    0.0000 ca      1  GRA1        0.0000
   3375 C          71.2254   49.6300    0.0000 ca      1  GRA1        0.0000
   3376 C          73.6814   46.7940    0.0000 ca      1  GRA1        0.0000
   3377 C          72.4534   47.5030    0.0000 ca      1  GRA1        0.0000
   3378 C          72.4534   48.9210    0.0000 ca      1  GRA1        0.0000
   3379 C          73.6814   49.6300    0.0000 ca      1  GRA1        0.0000
   3380 C          76.1375   46.7940    0.0000 ca      1  GRA1        0.0000
   3381 C          74.9095   47.5030    0.0000 ca      1  GRA1        0.0000
   3382 C          74.9095   48.9210    0.0000 ca      1  GRA1        0.0000
   3383 C          76.1375   49.6300    0.0000 ca      1  GRA1        0.0000
   3384 C          78.5935   46.7940    0.0000 ca      1  GRA1        0.0000
   3385 C          77.3655   47.5030    0.0000 ca      1  GRA1        0.0000
   3386 C          77.3655   48.9210    0.0000 ca      1  GRA1        0.0000
   3387 C          78.5935   49.6300    0.0000 ca      1  GRA1        0.0000
   3388 C          81.0496   46.7940    0.0000 ca      1  GRA1        0.0000
   3389 C          79.8216   47.5030    0.0000 ca      1  GRA1        0.0000
   3390 C          79.8216   48.9210    0.0000 ca      1  GRA1        0.0000
   3391 C          81.0496   49.6300    0.0000 ca      1  GRA1        0.0000
   3392 C          83.5056   46.7940    0.0000 ca      1  GRA1        0.0000
   3393 C          82.2776   47.5030    0.0000 ca      1  GRA1        0.0000
   3394 C          82.2776   48.9210    0.0000 ca      1  GRA1        0.0000
   3395 C          83.5056   49.6300    0.0000 ca      1  GRA1        0.0000
   3396 C          85.9617   46.7940    0.0000 ca      1  GRA1        0.0000
   3397 C          84.7337   47.5030    0.0000 ca      1  GRA1        0.0000
   3398 C          84.7337   48.9210    0.0000 ca      1  GRA1        0.0000
   3399 C          85.9617   49.6300    0.0000 ca      1  GRA1        0.0000
   3400 C          88.4177   46.7940    0.0000 ca      1  GRA1        0.0000
   3401 C          87.1897   47.5030    0.0000 ca      1  GRA1        0.0000
   3402 C          87.1897   48.9210    0.0000 ca      1  GRA1        0.0000
   3403 C          88.4177   49.6300    0.0000 ca      1  GRA1        0.0000
   3404 C          90.8738   46.7940    0.0000 ca      1  GRA1        0.0000
   3405 C          89.6458   47.5030    0.0000 ca      1  GRA1        0.0000
   3406 C          89.6458   48.9210    0.0000 ca      1  GRA1        0.0000
   3407 C          90.8738   49.6300    0.0000 ca      1  GRA1        0.0000
   3408 C          93.3298   46.7940    0.0000 ca      1  GRA1        0.0000
   3409 C          92.1018   47.5030    0.0000 ca      1  GRA1        0.0000
   3410 C          92.1018   48.9210    0.0000 ca      1  GRA1        0.0000
   3411 C          93.3298   49.6300    0.0000 ca      1  GRA1        0.0000
   3412 C          95.7859   46.7940    0.0000 ca      1  GRA1        0.0000
   3413 C          94.5578   47.5030    0.0000 ca      1  GRA1        0.0000
   3414 C          94.5578   48.9210    0.0000 ca      1  GRA1        0.0000
   3415 C          95.7859   49.6300    0.0000 ca      1  GRA1        0.0000
   3416 C          98.2419   46.7940    0.0000 ca      1  GRA1        0.0000
   3417 C          97.0139   47.5030    0.0000 ca      1  GRA1        0.0000
   3418 C          97.0139   48.9210    0.0000 ca      1  GRA1        0.0000
   3419 C          98.2419   49.6300    0.0000 ca      1  GRA1        0.0000
   3420 C         100.6980   46.7940    0.0000 ca      1  GRA1        0.0000
   3421 C          99.4699   47.5030    0.0000 ca      1  GRA1        0.0000
   3422 C          99.4699   48.9210    0.0000 ca      1  GRA1        0.0000
   3423 C         100.6980   49.6300    0.0000 ca      1  GRA1        0.0000
   3424 C         103.1540   46.7940    0.0000 ca      1  GRA1        0.0000
   3425 C         101.9260   47.5030    0.0000 ca      1  GRA1        0.0000
   3426 C         101.9260   48.9210    0.0000 ca      1  GRA1        0.0000
   3427 C         103.1540   49.6300    0.0000 ca      1  GRA1        0.0000
   3428 C         105.6101   46.7940    0.0000 ca      1  GRA1        0.0000
   3429 C         104.3820   47.5030    0.0000 ca      1  GRA1        0.0000
   3430 C         104.3820   48.9210    0.0000 ca      1  GRA1        0.0000
   3431 C         105.6101   49.6300    0.0000 ca      1  GRA1        0.0000
   3432 C         108.0661   46.7940    0.0000 ca      1  GRA1        0.0000
   3433 C         106.8381   47.5030    0.0000 ca      1  GRA1        0.0000
   3434 C         106.8381   48.9210    0.0000 ca      1  GRA1        0.0000
   3435 C         108.0661   49.6300    0.0000 ca      1  GRA1        0.0000
   3436 C         110.5222   46.7940    0.0000 ca      1  GRA1        0.0000
   3437 C         109.2941   47.5030    0.0000 ca      1  GRA1        0.0000
   3438 C         109.2941   48.9210    0.0000 ca      1  GRA1        0.0000
   3439 C         110.5222   49.6300    0.0000 ca      1  GRA1        0.0000
   3440 C         112.9782   46.7940    0.0000 ca      1  GRA1        0.0000
   3441 C         111.7502   47.5030    0.0000 ca      1  GRA1        0.0000
   3442 C         111.7502   48.9210    0.0000 ca      1  GRA1        0.0000
   3443 C         112.9782   49.6300    0.0000 ca      1  GRA1        0.0000
   3444 C         115.4343   46.7940    0.0000 ca      1  GRA1        0.0000
   3445 C         114.2062   47.5030    0.0000 ca      1  GRA1        0.0000
   3446 C         114.2062   48.9210    0.0000 ca      1  GRA1        0.0000
   3447 C         115.4343   49.6300    0.0000 ca      1  GRA1        0.0000
   3448 C         117.8903   46.7940    0.0000 ca      1  GRA1        0.0000
   3449 C         116.6623   47.5030    0.0000 ca      1  GRA1        0.0000
   3450 C         116.6623   48.9210    0.0000 ca      1  GRA1        0.0000
   3451 C         117.8903   49.6300    0.0000 ca      1  GRA1        0.0000
   3452 C         120.3464   46.7940    0.0000 ca      1  GRA1        0.0000
   3453 C         119.1183   47.5030    0.0000 ca      1  GRA1        0.0000
   3454 C         119.1183   48.9210    0.0000 ca      1  GRA1        0.0000
   3455 C         120.3464   49.6300    0.0000 ca      1  GRA1        0.0000
   3456 C         122.8024   46.7940    0.0000 ca      1  GRA1        0.0000
   3457 C         121.5744   47.5030    0.0000 ca      1  GRA1        0.0000
   3458 C         121.5744   48.9210    0.0000 ca      1  GRA1        0.0000
   3459 C         122.8024   49.6300    0.0000 ca      1  GRA1        0.0000
   3460 C         125.2585   46.7940    0.0000 ca      1  GRA1        0.0000
   3461 C         124.0304   47.5030    0.0000 ca      1  GRA1        0.0000
   3462 C         124.0304   48.9210    0.0000 ca      1  GRA1        0.0000
   3463 C         125.2585   49.6300    0.0000 ca      1  GRA1        0.0000
   3464 C         127.7145   46.7940    0.0000 ca      1  GRA1        0.0000
   3465 C         126.4865   47.5030    0.0000 ca      1  GRA1        0.0000
   3466 C         126.4865   48.9210    0.0000 ca      1  GRA1        0.0000
   3467 C         127.7145   49.6300    0.0000 ca      1  GRA1        0.0000
   3468 C         130.1705   46.7940    0.0000 ca      1  GRA1        0.0000
   3469 C         128.9425   47.5030    0.0000 ca      1  GRA1        0.0000
   3470 C         128.9425   48.9210    0.0000 ca      1  GRA1        0.0000
   3471 C         130.1705   49.6300    0.0000 ca      1  GRA1        0.0000
   3472 C         132.6266   46.7940    0.0000 ca      1  GRA1        0.0000
   3473 C         131.3986   47.5030    0.0000 ca      1  GRA1        0.0000
   3474 C         131.3986   48.9210    0.0000 ca      1  GRA1        0.0000
   3475 C         132.6266   49.6300    0.0000 ca      1  GRA1        0.0000
   3476 C         135.0826   46.7940    0.0000 ca      1  GRA1        0.0000
   3477 C         133.8546   47.5030    0.0000 ca      1  GRA1        0.0000
   3478 C         133.8546   48.9210    0.0000 ca      1  GRA1        0.0000
   3479 C         135.0826   49.6300    0.0000 ca      1  GRA1        0.0000
   3480 C         137.5387   46.7940    0.0000 ca      1  GRA1        0.0000
   3481 C         136.3107   47.5030    0.0000 ca      1  GRA1        0.0000
   3482 C         136.3107   48.9210    0.0000 ca      1  GRA1        0.0000
   3483 C         137.5387   49.6300    0.0000 ca      1  GRA1        0.0000
   3484 C         139.9947   46.7940    0.0000 ca      1  GRA1        0.0000
   3485 C         138.7667   47.5030    0.0000 ca      1  GRA1        0.0000
   3486 C         138.7667   48.9210    0.0000 ca      1  GRA1        0.0000
   3487 C         139.9947   49.6300    0.0000 ca      1  GRA1        0.0000
   3488 C         142.4508   46.7940    0.0000 ca      1  GRA1        0.0000
   3489 C         141.2228   47.5030    0.0000 ca      1  GRA1        0.0000
   3490 C         141.2228   48.9210    0.0000 ca      1  GRA1        0.0000
   3491 C         142.4508   49.6300    0.0000 ca      1  GRA1        0.0000
   3492 C         144.9068   46.7940    0.0000 ca      1  GRA1        0.0000
   3493 C         143.6788   47.5030    0.0000 ca      1  GRA1        0.0000
   3494 C         143.6788   48.9210    0.0000 ca      1  GRA1        0.0000
   3495 C         144.9068   49.6300    0.0000 ca      1  GRA1        0.0000
   3496 C         147.3629   46.7940    0.0000 ca      1  GRA1        0.0000
   3497 C         146.1349   47.5030    0.0000 ca      1  GRA1        0.0000
   3498 C         146.1349   48.9210    0.0000 ca      1  GRA1        0.0000
   3499 C         147.3629   49.6300    0.0000 ca      1  GRA1        0.0000
   3500 C         149.8189   46.7940    0.0000 ca      1  GRA1        0.0000
   3501 C         148.5909   47.5030    0.0000 ca      1  GRA1        0.0000
   3502 C         148.5909   48.9210    0.0000 ca      1  GRA1        0.0000
   3503 C         149.8189   49.6300    0.0000 ca      1  GRA1        0.0000
   3504 C         152.2750   46.7940    0.0000 ca      1  GRA1        0.0000
   3505 C         151.0470   47.5030    0.0000 ca      1  GRA1        0.0000
   3506 C         151.0470   48.9210    0.0000 ca      1  GRA1        0.0000
   3507 C         152.2750   49.6300    0.0000 ca      1  GRA1        0.0000
   3508 C         154.7310   46.7940    0.0000 ca      1  GRA1        0.0000
   3509 C         153.5030   47.5030    0.0000 ca      1  GRA1        0.0000
   3510 C         153.5030   48.9210    0.0000 ca      1  GRA1        0.0000
   3511 C         154.7310   49.6300    0.0000 ca      1  GRA1        0.0000
   3512 C         157.1871   46.7940    0.0000 ca      1  GRA1        0.0000
   3513 C         155.9590   47.5030    0.0000 ca      1  GRA1        0.0000
   3514 C         155.9590   48.9210    0.0000 ca      1  GRA1        0.0000
   3515 C         157.1871   49.6300    0.0000 ca      1  GRA1        0.0000
   3516 C         159.6431   46.7940    0.0000 ca      1  GRA1        0.0000
   3517 C         158.4151   47.5030    0.0000 ca      1  GRA1        0.0000
   3518 C         158.4151   48.9210    0.0000 ca      1  GRA1        0.0000
   3519 C         159.6431   49.6300    0.0000 ca      1  GRA1        0.0000
   3520 C         162.0992   46.7940    0.0000 ca      1  GRA1        0.0000
   3521 C         160.8711   47.5030    0.0000 ca      1  GRA1        0.0000
   3522 C         160.8711   48.9210    0.0000 ca      1  GRA1        0.0000
   3523 C         162.0992   49.6300    0.0000 ca      1  GRA1        0.0000
   3524 C         164.5552   46.7940    0.0000 ca      1  GRA1        0.0000
   3525 C         163.3272   47.5030    0.0000 ca      1  GRA1        0.0000
   3526 C         163.3272   48.9210    0.0000 ca      1  GRA1        0.0000
   3527 C         164.5552   49.6300    0.0000 ca      1  GRA1        0.0000
   3528 C         167.0113   46.7940    0.0000 ca      1  GRA1        0.0000
   3529 C         165.7832   47.5030    0.0000 ca      1  GRA1        0.0000
   3530 C         165.7832   48.9210    0.0000 ca      1  GRA1        0.0000
   3531 C         167.0113   49.6300    0.0000 ca      1  GRA1        0.0000
   3532 C         169.4673   46.7940    0.0000 ca      1  GRA1        0.0000
   3533 C         168.2393   47.5030    0.0000 ca      1  GRA1        0.0000
   3534 C         168.2393   48.9210    0.0000 ca      1  GRA1        0.0000
   3535 C         169.4673   49.6300    0.0000 ca      1  GRA1        0.0000
   3536 C         171.9234   46.7940    0.0000 ca      1  GRA1        0.0000
   3537 C         170.6953   47.5030    0.0000 ca      1  GRA1        0.0000
   3538 C         170.6953   48.9210    0.0000 ca      1  GRA1        0.0000
   3539 C         171.9234   49.6300    0.0000 ca      1  GRA1        0.0000
   3540 C         174.3794   46.7940    0.0000 ca      1  GRA1        0.0000
   3541 C         173.1514   47.5030    0.0000 ca      1  GRA1        0.0000
   3542 C         173.1514   48.9210    0.0000 ca      1  GRA1        0.0000
   3543 C         174.3794   49.6300    0.0000 ca      1  GRA1        0.0000
   3544 C         176.8355   46.7940    0.0000 ca      1  GRA1        0.0000
   3545 C         175.6074   47.5030    0.0000 ca      1  GRA1        0.0000
   3546 C         175.6074   48.9210    0.0000 ca      1  GRA1        0.0000
   3547 C         176.8355   49.6300    0.0000 ca      1  GRA1        0.0000
   3548 C         179.2915   46.7940    0.0000 ca      1  GRA1        0.0000
   3549 C         178.0635   47.5030    0.0000 ca      1  GRA1        0.0000
   3550 C         178.0635   48.9210    0.0000 ca      1  GRA1        0.0000
   3551 C         179.2915   49.6300    0.0000 ca      1  GRA1        0.0000
   3552 C           0.0000   51.0480    0.0000 ca      1  GRA1        0.0000
   3553 C          -1.2280   51.7570    0.0000 ca      1  GRA1        0.0000
   3554 C          -1.2280   53.1750    0.0000 ca      1  GRA1        0.0000
   3555 C           0.0000   53.8840    0.0000 ca      1  GRA1        0.0000
   3556 C           2.4560   51.0480    0.0000 ca      1  GRA1        0.0000
   3557 C           1.2280   51.7570    0.0000 ca      1  GRA1        0.0000
   3558 C           1.2280   53.1750    0.0000 ca      1  GRA1        0.0000
   3559 C           2.4560   53.8840    0.0000 ca      1  GRA1        0.0000
   3560 C           4.9121   51.0480    0.0000 ca      1  GRA1        0.0000
   3561 C           3.6841   51.7570    0.0000 ca      1  GRA1        0.0000
   3562 C           3.6841   53.1750    0.0000 ca      1  GRA1        0.0000
   3563 C           4.9121   53.8840    0.0000 ca      1  GRA1        0.0000
   3564 C           7.3681   51.0480    0.0000 ca      1  GRA1        0.0000
   3565 C           6.1401   51.7570    0.0000 ca      1  GRA1        0.0000
   3566 C           6.1401   53.1750    0.0000 ca      1  GRA1        0.0000
   3567 C           7.3681   53.8840    0.0000 ca      1  GRA1        0.0000
   3568 C           9.8242   51.0480    0.0000 ca      1  GRA1        0.0000
   3569 C           8.5962   51.7570    0.0000 ca      1  GRA1        0.0000
   3570 C           8.5962   53.1750    0.0000 ca      1  GRA1        0.0000
   3571 C           9.8242   53.8840    0.0000 ca      1  GRA1        0.0000
   3572 C          12.2802   51.0480    0.0000 ca      1  GRA1        0.0000
   3573 C          11.0522   51.7570    0.0000 ca      1  GRA1        0.0000
   3574 C          11.0522   53.1750    0.0000 ca      1  GRA1        0.0000
   3575 C          12.2802   53.8840    0.0000 ca      1  GRA1        0.0000
   3576 C          14.7363   51.0480    0.0000 ca      1  GRA1        0.0000
   3577 C          13.5083   51.7570    0.0000 ca      1  GRA1        0.0000
   3578 C          13.5083   53.1750    0.0000 ca      1  GRA1        0.0000
   3579 C          14.7363   53.8840    0.0000 ca      1  GRA1        0.0000
   3580 C          17.1923   51.0480    0.0000 ca      1  GRA1        0.0000
   3581 C          15.9643   51.7570    0.0000 ca      1  GRA1        0.0000
   3582 C          15.9643   53.1750    0.0000 ca      1  GRA1        0.0000
   3583 C          17.1923   53.8840    0.0000 ca      1  GRA1        0.0000
   3584 C          19.6484   51.0480    0.0000 ca      1  GRA1        0.0000
   3585 C          18.4204   51.7570    0.0000 ca      1  GRA1        0.0000
   3586 C          18.4204   53.1750    0.0000 ca      1  GRA1        0.0000
   3587 C          19.6484   53.8840    0.0000 ca      1  GRA1        0.0000
   3588 C          22.1044   51.0480    0.0000 ca      1  GRA1        0.0000
   3589 C          20.8764   51.7570    0.0000 ca      1  GRA1        0.0000
   3590 C          20.8764   53.1750    0.0000 ca      1  GRA1        0.0000
   3591 C          22.1044   53.8840    0.0000 ca      1  GRA1        0.0000
   3592 C          24.5605   51.0480    0.0000 ca      1  GRA1        0.0000
   3593 C          23.3325   51.7570    0.0000 ca      1  GRA1        0.0000
   3594 C          23.3325   53.1750    0.0000 ca      1  GRA1        0.0000
   3595 C          24.5605   53.8840    0.0000 ca      1  GRA1        0.0000
   3596 C          27.0165   51.0480    0.0000 ca      1  GRA1        0.0000
   3597 C          25.7885   51.7570    0.0000 ca      1  GRA1        0.0000
   3598 C          25.7885   53.1750    0.0000 ca      1  GRA1        0.0000
   3599 C          27.0165   53.8840    0.0000 ca      1  GRA1        0.0000
   3600 C          29.4726   51.0480    0.0000 ca      1  GRA1        0.0000
   3601 C          28.2446   51.7570    0.0000 ca      1  GRA1        0.0000
   3602 C          28.2446   53.1750    0.0000 ca      1  GRA1        0.0000
   3603 C          29.4726   53.8840    0.0000 ca      1  GRA1        0.0000
   3604 C          31.9286   51.0480    0.0000 ca      1  GRA1        0.0000
   3605 C          30.7006   51.7570    0.0000 ca      1  GRA1        0.0000
   3606 C          30.7006   53.1750    0.0000 ca      1  GRA1        0.0000
   3607 C          31.9286   53.8840    0.0000 ca      1  GRA1        0.0000
   3608 C          34.3847   51.0480    0.0000 ca      1  GRA1        0.0000
   3609 C          33.1566   51.7570    0.0000 ca      1  GRA1        0.0000
   3610 C          33.1566   53.1750    0.0000 ca      1  GRA1        0.0000
   3611 C          34.3847   53.8840    0.0000 ca      1  GRA1        0.0000
   3612 C          36.8407   51.0480    0.0000 ca      1  GRA1        0.0000
   3613 C          35.6127   51.7570    0.0000 ca      1  GRA1        0.0000
   3614 C          35.6127   53.1750    0.0000 ca      1  GRA1        0.0000
   3615 C          36.8407   53.8840    0.0000 ca      1  GRA1        0.0000
   3616 C          39.2968   51.0480    0.0000 ca      1  GRA1        0.0000
   3617 C          38.0687   51.7570    0.0000 ca      1  GRA1        0.0000
   3618 C          38.0687   53.1750    0.0000 ca      1  GRA1        0.0000
   3619 C          39.2968   53.8840    0.0000 ca      1  GRA1        0.0000
   3620 C          41.7528   51.0480    0.0000 ca      1  GRA1        0.0000
   3621 C          40.5248   51.7570    0.0000 ca      1  GRA1        0.0000
   3622 C          40.5248   53.1750    0.0000 ca      1  GRA1        0.0000
   3623 C          41.7528   53.8840    0.0000 ca      1  GRA1        0.0000
   3624 C          44.2089   51.0480    0.0000 ca      1  GRA1        0.0000
   3625 C          42.9808   51.7570    0.0000 ca      1  GRA1        0.0000
   3626 C          42.9808   53.1750    0.0000 ca      1  GRA1        0.0000
   3627 C          44.2089   53.8840    0.0000 ca      1  GRA1        0.0000
   3628 C          46.6649   51.0480    0.0000 ca      1  GRA1        0.0000
   3629 C          45.4369   51.7570    0.0000 ca      1  GRA1        0.0000
   3630 C          45.4369   53.1750    0.0000 ca      1  GRA1        0.0000
   3631 C          46.6649   53.8840    0.0000 ca      1  GRA1        0.0000
   3632 C          49.1210   51.0480    0.0000 ca      1  GRA1        0.0000
   3633 C          47.8929   51.7570    0.0000 ca      1  GRA1        0.0000
   3634 C          47.8929   53.1750    0.0000 ca      1  GRA1        0.0000
   3635 C          49.1210   53.8840    0.0000 ca      1  GRA1        0.0000
   3636 C          51.5770   51.0480    0.0000 ca      1  GRA1        0.0000
   3637 C          50.3490   51.7570    0.0000 ca      1  GRA1        0.0000
   3638 C          50.3490   53.1750    0.0000 ca      1  GRA1        0.0000
   3639 C          51.5770   53.8840    0.0000 ca      1  GRA1        0.0000
   3640 C          54.0331   51.0480    0.0000 ca      1  GRA1        0.0000
   3641 C          52.8050   51.7570    0.0000 ca      1  GRA1        0.0000
   3642 C          52.8050   53.1750    0.0000 ca      1  GRA1        0.0000
   3643 C          54.0331   53.8840    0.0000 ca      1  GRA1        0.0000
   3644 C          56.4891   51.0480    0.0000 ca      1  GRA1        0.0000
   3645 C          55.2611   51.7570    0.0000 ca      1  GRA1        0.0000
   3646 C          55.2611   53.1750    0.0000 ca      1  GRA1        0.0000
   3647 C          56.4891   53.8840    0.0000 ca      1  GRA1        0.0000
   3648 C          58.9452   51.0480    0.0000 ca      1  GRA1        0.0000
   3649 C          57.7171   51.7570    0.0000 ca      1  GRA1        0.0000
   3650 C          57.7171   53.1750    0.0000 ca      1  GRA1        0.0000
   3651 C          58.9452   53.8840    0.0000 ca      1  GRA1        0.0000
   3652 C          61.4012   51.0480    0.0000 ca      1  GRA1        0.0000
   3653 C          60.1732   51.7570    0.0000 ca      1  GRA1        0.0000
   3654 C          60.1732   53.1750    0.0000 ca      1  GRA1        0.0000
   3655 C          61.4012   53.8840    0.0000 ca      1  GRA1        0.0000
   3656 C          63.8573   51.0480    0.0000 ca      1  GRA1        0.0000
   3657 C          62.6292   51.7570    0.0000 ca      1  GRA1        0.0000
   3658 C          62.6292   53.1750    0.0000 ca      1  GRA1        0.0000
   3659 C          63.8573   53.8840    0.0000 ca      1  GRA1        0.0000
   3660 C          66.3133   51.0480    0.0000 ca      1  GRA1        0.0000
   3661 C          65.0853   51.7570    0.0000 ca      1  GRA1        0.0000
   3662 C          65.0853   53.1750    0.0000 ca      1  GRA1        0.0000
   3663 C          66.3133   53.8840    0.0000 ca      1  GRA1        0.0000
   3664 C          68.7693   51.0480    0.0000 ca      1  GRA1        0.0000
   3665 C          67.5413   51.7570    0.0000 ca      1  GRA1        0.0000
   3666 C          67.5413   53.1750    0.0000 ca      1  GRA1        0.0000
   3667 C          68.7693   53.8840    0.0000 ca      1  GRA1        0.0000
   3668 C          71.2254   51.0480    0.0000 ca      1  GRA1        0.0000
   3669 C          69.9974   51.7570    0.0000 ca      1  GRA1        0.0000
   3670 C          69.9974   53.1750    0.0000 ca      1  GRA1        0.0000
   3671 C          71.2254   53.8840    0.0000 ca      1  GRA1        0.0000
   3672 C          73.6814   51.0480    0.0000 ca      1  GRA1        0.0000
   3673 C          72.4534   51.7570    0.0000 ca      1  GRA1        0.0000
   3674 C          72.4534   53.1750    0.0000 ca      1  GRA1        0.0000
   3675 C          73.6814   53.8840    0.0000 ca      1  GRA1        0.0000
   3676 C          76.1375   51.0480    0.0000 ca      1  GRA1        0.0000
   3677 C          74.9095   51.7570    0.0000 ca      1  GRA1        0.0000
   3678 C          74.9095   53.1750    0.0000 ca      1  GRA1        0.0000
   3679 C          76.1375   53.8840    0.0000 ca      1  GRA1        0.0000
   3680 C          78.5935   51.0480    0.0000 ca      1  GRA1        0.0000
   3681 C          77.3655   51.7570    0.0000 ca      1  GRA1        0.0000
   3682 C          77.3655   53.1750    0.0000 ca      1  GRA1        0.0000
   3683 C          78.5935   53.8840    0.0000 ca      1  GRA1        0.0000
   3684 C          81.0496   51.0480    0.0000 ca      1  GRA1        0.0000
   3685 C          79.8216   51.7570    0.0000 ca      1  GRA1        0.0000
   3686 C          79.8216   53.1750    0.0000 ca      1  GRA1        0.0000
   3687 C          81.0496   53.8840    0.0000 ca      1  GRA1        0.0000
   3688 C          83.5056   51.0480    0.0000 ca      1  GRA1        0.0000
   3689 C          82.2776   51.7570    0.0000 ca      1  GRA1        0.0000
   3690 C          82.2776   53.1750    0.0000 ca      1  GRA1        0.0000
   3691 C          83.5056   53.8840    0.0000 ca      1  GRA1        0.0000
   3692 C          85.9617   51.0480    0.0000 ca      1  GRA1        0.0000
   3693 C          84.7337   51.7570    0.0000 ca      1  GRA1        0.0000
   3694 C          84.7337   53.1750    0.0000 ca      1  GRA1        0.0000
   3695 C          85.9617   53.8840    0.0000 ca      1  GRA1        0.0000
   3696 C          88.4177   51.0480    0.0000 ca      1  GRA1        0.0000
   3697 C          87.1897   51.7570    0.0000 ca      1  GRA1        0.0000
   3698 C          87.1897   53.1750    0.0000 ca      1  GRA1        0.0000
   3699 C          88.4177   53.8840    0.0000 ca      1  GRA1        0.0000
   3700 C          90.8738   51.0480    0.0000 ca      1  GRA1        0.0000
   3701 C          89.6458   51.7570    0.0000 ca      1  GRA1        0.0000
   3702 C          89.6458   53.1750    0.0000 ca      1  GRA1        0.0000
   3703 C          90.8738   53.8840    0.0000 ca      1  GRA1        0.0000
   3704 C          93.3298   51.0480    0.0000 ca      1  GRA1        0.0000
   3705 C          92.1018   51.7570    0.0000 ca      1  GRA1        0.0000
   3706 C          92.1018   53.1750    0.0000 ca      1  GRA1        0.0000
   3707 C          93.3298   53.8840    0.0000 ca      1  GRA1        0.0000
   3708 C          95.7859   51.0480    0.0000 ca      1  GRA1        0.0000
   3709 C          94.5578   51.7570    0.0000 ca      1  GRA1        0.0000
   3710 C          94.5578   53.1750    0.0000 ca      1  GRA1        0.0000
   3711 C          95.7859   53.8840    0.0000 ca      1  GRA1        0.0000
   3712 C          98.2419   51.0480    0.0000 ca      1  GRA1        0.0000
   3713 C          97.0139   51.7570    0.0000 ca      1  GRA1        0.0000
   3714 C          97.0139   53.1750    0.0000 ca      1  GRA1        0.0000
   3715 C          98.2419   53.8840    0.0000 ca      1  GRA1        0.0000
   3716 C         100.6980   51.0480    0.0000 ca      1  GRA1        0.0000
   3717 C          99.4699   51.7570    0.0000 ca      1  GRA1        0.0000
   3718 C          99.4699   53.1750    0.0000 ca      1  GRA1        0.0000
   3719 C         100.6980   53.8840    0.0000 ca      1  GRA1        0.0000
   3720 C         103.1540   51.0480    0.0000 ca      1  GRA1        0.0000
   3721 C         101.9260   51.7570    0.0000 ca      1  GRA1        0.0000
   3722 C         101.9260   53.1750    0.0000 ca      1  GRA1        0.0000
   3723 C         103.1540   53.8840    0.0000 ca      1  GRA1        0.0000
   3724 C         105.6101   51.0480    0.0000 ca      1  GRA1        0.0000
   3725 C         104.3820   51.7570    0.0000 ca      1  GRA1        0.0000
   3726 C         104.3820   53.1750    0.0000 ca      1  GRA1        0.0000
   3727 C         105.6101   53.8840    0.0000 ca      1  GRA1        0.0000
   3728 C         108.0661   51.0480    0.0000 ca      1  GRA1        0.0000
   3729 C         106.8381   51.7570    0.0000 ca      1  GRA1        0.0000
   3730 C         106.8381   53.1750    0.0000 ca      1  GRA1        0.0000
   3731 C         108.0661   53.8840    0.0000 ca      1  GRA1        0.0000
   3732 C         110.5222   51.0480    0.0000 ca      1  GRA1        0.0000
   3733 C         109.2941   51.7570    0.0000 ca      1  GRA1        0.0000
   3734 C         109.2941   53.1750    0.0000 ca      1  GRA1        0.0000
   3735 C         110.5222   53.8840    0.0000 ca      1  GRA1        0.0000
   3736 C         112.9782   51.0480    0.0000 ca      1  GRA1        0.0000
   3737 C         111.7502   51.7570    0.0000 ca      1  GRA1        0.0000
   3738 C         111.7502   53.1750    0.0000 ca      1  GRA1        0.0000
   3739 C         112.9782   53.8840    0.0000 ca      1  GRA1        0.0000
   3740 C         115.4343   51.0480    0.0000 ca      1  GRA1        0.0000
   3741 C         114.2062   51.7570    0.0000 ca      1  GRA1        0.0000
   3742 C         114.2062   53.1750    0.0000 ca      1  GRA1        0.0000
   3743 C         115.4343   53.8840    0.0000 ca      1  GRA1        0.0000
   3744 C         117.8903   51.0480    0.0000 ca      1  GRA1        0.0000
   3745 C         116.6623   51.7570    0.0000 ca      1  GRA1        0.0000
   3746 C         116.6623   53.1750    0.0000 ca      1  GRA1        0.0000
   3747 C         117.8903   53.8840    0.0000 ca      1  GRA1        0.0000
   3748 C         120.3464   51.0480    0.0000 ca      1  GRA1        0.0000
   3749 C         119.1183   51.7570    0.0000 ca      1  GRA1        0.0000
   3750 C         119.1183   53.1750    0.0000 ca      1  GRA1        0.0000
   3751 C         120.3464   53.8840    0.0000 ca      1  GRA1        0.0000
   3752 C         122.8024   51.0480    0.0000 ca      1  GRA1        0.0000
   3753 C         121.5744   51.7570    0.0000 ca      1  GRA1        0.0000
   3754 C         121.5744   53.1750    0.0000 ca      1  GRA1        0.0000
   3755 C         122.8024   53.8840    0.0000 ca      1  GRA1        0.0000
   3756 C         125.2585   51.0480    0.0000 ca      1  GRA1        0.0000
   3757 C         124.0304   51.7570    0.0000 ca      1  GRA1        0.0000
   3758 C         124.0304   53.1750    0.0000 ca      1  GRA1        0.0000
   3759 C         125.2585   53.8840    0.0000 ca      1  GRA1        0.0000
   3760 C         127.7145   51.0480    0.0000 ca      1  GRA1        0.0000
   3761 C         126.4865   51.7570    0.0000 ca      1  GRA1        0.0000
   3762 C         126.4865   53.1750    0.0000 ca      1  GRA1        0.0000
   3763 C         127.7145   53.8840    0.0000 ca      1  GRA1        0.0000
   3764 C         130.1705   51.0480    0.0000 ca      1  GRA1        0.0000
   3765 C         128.9425   51.7570    0.0000 ca      1  GRA1        0.0000
   3766 C         128.9425   53.1750    0.0000 ca      1  GRA1        0.0000
   3767 C         130.1705   53.8840    0.0000 ca      1  GRA1        0.0000
   3768 C         132.6266   51.0480    0.0000 ca      1  GRA1        0.0000
   3769 C         131.3986   51.7570    0.0000 ca      1  GRA1        0.0000
   3770 C         131.3986   53.1750    0.0000 ca      1  GRA1        0.0000
   3771 C         132.6266   53.8840    0.0000 ca      1  GRA1        0.0000
   3772 C         135.0826   51.0480    0.0000 ca      1  GRA1        0.0000
   3773 C         133.8546   51.7570    0.0000 ca      1  GRA1        0.0000
   3774 C         133.8546   53.1750    0.0000 ca      1  GRA1        0.0000
   3775 C         135.0826   53.8840    0.0000 ca      1  GRA1        0.0000
   3776 C         137.5387   51.0480    0.0000 ca      1  GRA1        0.0000
   3777 C         136.3107   51.7570    0.0000 ca      1  GRA1        0.0000
   3778 C         136.3107   53.1750    0.0000 ca      1  GRA1        0.0000
   3779 C         137.5387   53.8840    0.0000 ca      1  GRA1        0.0000
   3780 C         139.9947   51.0480    0.0000 ca      1  GRA1        0.0000
   3781 C         138.7667   51.7570    0.0000 ca      1  GRA1        0.0000
   3782 C         138.7667   53.1750    0.0000 ca      1  GRA1        0.0000
   3783 C         139.9947   53.8840    0.0000 ca      1  GRA1        0.0000
   3784 C         142.4508   51.0480    0.0000 ca      1  GRA1        0.0000
   3785 C         141.2228   51.7570    0.0000 ca      1  GRA1        0.0000
   3786 C         141.2228   53.1750    0.0000 ca      1  GRA1        0.0000
   3787 C         142.4508   53.8840    0.0000 ca      1  GRA1        0.0000
   3788 C         144.9068   51.0480    0.0000 ca      1  GRA1        0.0000
   3789 C         143.6788   51.7570    0.0000 ca      1  GRA1        0.0000
   3790 C         143.6788   53.1750    0.0000 ca      1  GRA1        0.0000
   3791 C         144.9068   53.8840    0.0000 ca      1  GRA1        0.0000
   3792 C         147.3629   51.0480    0.0000 ca      1  GRA1        0.0000
   3793 C         146.1349   51.7570    0.0000 ca      1  GRA1        0.0000
   3794 C         146.1349   53.1750    0.0000 ca      1  GRA1        0.0000
   3795 C         147.3629   53.8840    0.0000 ca      1  GRA1        0.0000
   3796 C         149.8189   51.0480    0.0000 ca      1  GRA1        0.0000
   3797 C         148.5909   51.7570    0.0000 ca      1  GRA1        0.0000
   3798 C         148.5909   53.1750    0.0000 ca      1  GRA1        0.0000
   3799 C         149.8189   53.8840    0.0000 ca      1  GRA1        0.0000
   3800 C         152.2750   51.0480    0.0000 ca      1  GRA1        0.0000
   3801 C         151.0470   51.7570    0.0000 ca      1  GRA1        0.0000
   3802 C         151.0470   53.1750    0.0000 ca      1  GRA1        0.0000
   3803 C         152.2750   53.8840    0.0000 ca      1  GRA1        0.0000
   3804 C         154.7310   51.0480    0.0000 ca      1  GRA1        0.0000
   3805 C         153.5030   51.7570    0.0000 ca      1  GRA1        0.0000
   3806 C         153.5030   53.1750    0.0000 ca      1  GRA1        0.0000
   3807 C         154.7310   53.8840    0.0000 ca      1  GRA1        0.0000
   3808 C         157.1871   51.0480    0.0000 ca      1  GRA1        0.0000
   3809 C         155.9590   51.7570    0.0000 ca      1  GRA1        0.0000
   3810 C         155.9590   53.1750    0.0000 ca      1  GRA1        0.0000
   3811 C         157.1871   53.8840    0.0000 ca      1  GRA1        0.0000
   3812 C         159.6431   51.0480    0.0000 ca      1  GRA1        0.0000
   3813 C         158.4151   51.7570    0.0000 ca      1  GRA1        0.0000
   3814 C         158.4151   53.1750    0.0000 ca      1  GRA1        0.0000
   3815 C         159.6431   53.8840    0.0000 ca      1  GRA1        0.0000
   3816 C         162.0992   51.0480    0.0000 ca      1  GRA1        0.0000
   3817 C         160.8711   51.7570    0.0000 ca      1  GRA1        0.0000
   3818 C         160.8711   53.1750    0.0000 ca      1  GRA1        0.0000
   3819 C         162.0992   53.8840    0.0000 ca      1  GRA1        0.0000
   3820 C         164.5552   51.0480    0.0000 ca      1  GRA1        0.0000
   3821 C         163.3272   51.7570    0.0000 ca      1  GRA1        0.0000
   3822 C         163.3272   53.1750    0.0000 ca      1  GRA1        0.0000
   3823 C         164.5552   53.8840    0.0000 ca      1  GRA1        0.0000
   3824 C         167.0113   51.0480    0.0000 ca      1  GRA1        0.0000
   3825 C         165.7832   51.7570    0.0000 ca      1  GRA1        0.0000
   3826 C         165.7832   53.1750    0.0000 ca      1  GRA1        0.0000
   3827 C         167.0113   53.8840    0.0000 ca      1  GRA1        0.0000
   3828 C         169.4673   51.0480    0.0000 ca      1  GRA1        0.0000
   3829 C         168.2393   51.7570    0.0000 ca      1  GRA1        0.0000
   3830 C         168.2393   53.1750    0.0000 ca      1  GRA1        0.0000
   3831 C         169.4673   53.8840    0.0000 ca      1  GRA1        0.0000
   3832 C         171.9234   51.0480    0.0000 ca      1  GRA1        0.0000
   3833 C         170.6953   51.7570    0.0000 ca      1  GRA1        0.0000
   3834 C         170.6953   53.1750    0.0000 ca      1  GRA1        0.0000
   3835 C         171.9234   53.8840    0.0000 ca      1  GRA1        0.0000
   3836 C         174.3794   51.0480    0.0000 ca      1  GRA1        0.0000
   3837 C         173.1514   51.7570    0.0000 ca      1  GRA1        0.0000
   3838 C         173.1514   53.1750    0.0000 ca      1  GRA1        0.0000
   3839 C         174.3794   53.8840    0.0000 ca      1  GRA1        0.0000
   3840 C         176.8355   51.0480    0.0000 ca      1  GRA1        0.0000
   3841 C         175.6074   51.7570    0.0000 ca      1  GRA1        0.0000
   3842 C         175.6074   53.1750    0.0000 ca      1  GRA1        0.0000
   3843 C         176.8355   53.8840    0.0000 ca      1  GRA1        0.0000
   3844 C         179.2915   51.0480    0.0000 ca      1  GRA1        0.0000
   3845 C         178.0635   51.7570    0.0000 ca      1  GRA1        0.0000
   3846 C         178.0635   53.1750    0.0000 ca      1  GRA1        0.0000
   3847 C         179.2915   53.8840    0.0000 ca      1  GRA1        0.0000
   3848 C           0.0000   55.3020    0.0000 ca      1  GRA1        0.0000
   3849 C          -1.2280   56.0110    0.0000 ca      1  GRA1        0.0000
   3850 C          -1.2280   57.4290    0.0000 ca      1  GRA1        0.0000
   3851 C           0.0000   58.1380    0.0000 ca      1  GRA1        0.0000
   3852 C           2.4560   55.3020    0.0000 ca      1  GRA1        0.0000
   3853 C           1.2280   56.0110    0.0000 ca      1  GRA1        0.0000
   3854 C           1.2280   57.4290    0.0000 ca      1  GRA1        0.0000
   3855 C           2.4560   58.1380    0.0000 ca      1  GRA1        0.0000
   3856 C           4.9121   55.3020    0.0000 ca      1  GRA1        0.0000
   3857 C           3.6841   56.0110    0.0000 ca      1  GRA1        0.0000
   3858 C           3.6841   57.4290    0.0000 ca      1  GRA1        0.0000
   3859 C           4.9121   58.1380    0.0000 ca      1  GRA1        0.0000
   3860 C           7.3681   55.3020    0.0000 ca      1  GRA1        0.0000
   3861 C           6.1401   56.0110    0.0000 ca      1  GRA1        0.0000
   3862 C           6.1401   57.4290    0.0000 ca      1  GRA1        0.0000
   3863 C           7.3681   58.1380    0.0000 ca      1  GRA1        0.0000
   3864 C           9.8242   55.3020    0.0000 ca      1  GRA1        0.0000
   3865 C           8.5962   56.0110    0.0000 ca      1  GRA1        0.0000
   3866 C           8.5962   57.4290    0.0000 ca      1  GRA1        0.0000
   3867 C           9.8242   58.1380    0.0000 ca      1  GRA1        0.0000
   3868 C          12.2802   55.3020    0.0000 ca      1  GRA1        0.0000
   3869 C          11.0522   56.0110    0.0000 ca      1  GRA1        0.0000
   3870 C          11.0522   57.4290    0.0000 ca      1  GRA1        0.0000
   3871 C          12.2802   58.1380    0.0000 ca      1  GRA1        0.0000
   3872 C          14.7363   55.3020    0.0000 ca      1  GRA1        0.0000
   3873 C          13.5083   56.0110    0.0000 ca      1  GRA1        0.0000
   3874 C          13.5083   57.4290    0.0000 ca      1  GRA1        0.0000
   3875 C          14.7363   58.1380    0.0000 ca      1  GRA1        0.0000
   3876 C          17.1923   55.3020    0.0000 ca      1  GRA1        0.0000
   3877 C          15.9643   56.0110    0.0000 ca      1  GRA1        0.0000
   3878 C          15.9643   57.4290    0.0000 ca      1  GRA1        0.0000
   3879 C          17.1923   58.1380    0.0000 ca      1  GRA1        0.0000
   3880 C          19.6484   55.3020    0.0000 ca      1  GRA1        0.0000
   3881 C          18.4204   56.0110    0.0000 ca      1  GRA1        0.0000
   3882 C          18.4204   57.4290    0.0000 ca      1  GRA1        0.0000
   3883 C          19.6484   58.1380    0.0000 ca      1  GRA1        0.0000
   3884 C          22.1044   55.3020    0.0000 ca      1  GRA1        0.0000
   3885 C          20.8764   56.0110    0.0000 ca      1  GRA1        0.0000
   3886 C          20.8764   57.4290    0.0000 ca      1  GRA1        0.0000
   3887 C          22.1044   58.1380    0.0000 ca      1  GRA1        0.0000
   3888 C          24.5605   55.3020    0.0000 ca      1  GRA1        0.0000
   3889 C          23.3325   56.0110    0.0000 ca      1  GRA1        0.0000
   3890 C          23.3325   57.4290    0.0000 ca      1  GRA1        0.0000
   3891 C          24.5605   58.1380    0.0000 ca      1  GRA1        0.0000
   3892 C          27.0165   55.3020    0.0000 ca      1  GRA1        0.0000
   3893 C          25.7885   56.0110    0.0000 ca      1  GRA1        0.0000
   3894 C          25.7885   57.4290    0.0000 ca      1  GRA1        0.0000
   3895 C          27.0165   58.1380    0.0000 ca      1  GRA1        0.0000
   3896 C          29.4726   55.3020    0.0000 ca      1  GRA1        0.0000
   3897 C          28.2446   56.0110    0.0000 ca      1  GRA1        0.0000
   3898 C          28.2446   57.4290    0.0000 ca      1  GRA1        0.0000
   3899 C          29.4726   58.1380    0.0000 ca      1  GRA1        0.0000
   3900 C          31.9286   55.3020    0.0000 ca      1  GRA1        0.0000
   3901 C          30.7006   56.0110    0.0000 ca      1  GRA1        0.0000
   3902 C          30.7006   57.4290    0.0000 ca      1  GRA1        0.0000
   3903 C          31.9286   58.1380    0.0000 ca      1  GRA1        0.0000
   3904 C          34.3847   55.3020    0.0000 ca      1  GRA1        0.0000
   3905 C          33.1566   56.0110    0.0000 ca      1  GRA1        0.0000
   3906 C          33.1566   57.4290    0.0000 ca      1  GRA1        0.0000
   3907 C          34.3847   58.1380    0.0000 ca      1  GRA1        0.0000
   3908 C          36.8407   55.3020    0.0000 ca      1  GRA1        0.0000
   3909 C          35.6127   56.0110    0.0000 ca      1  GRA1        0.0000
   3910 C          35.6127   57.4290    0.0000 ca      1  GRA1        0.0000
   3911 C          36.8407   58.1380    0.0000 ca      1  GRA1        0.0000
   3912 C          39.2968   55.3020    0.0000 ca      1  GRA1        0.0000
   3913 C          38.0687   56.0110    0.0000 ca      1  GRA1        0.0000
   3914 C          38.0687   57.4290    0.0000 ca      1  GRA1        0.0000
   3915 C          39.2968   58.1380    0.0000 ca      1  GRA1        0.0000
   3916 C          41.7528   55.3020    0.0000 ca      1  GRA1        0.0000
   3917 C          40.5248   56.0110    0.0000 ca      1  GRA1        0.0000
   3918 C          40.5248   57.4290    0.0000 ca      1  GRA1        0.0000
   3919 C          41.7528   58.1380    0.0000 ca      1  GRA1        0.0000
   3920 C          44.2089   55.3020    0.0000 ca      1  GRA1        0.0000
   3921 C          42.9808   56.0110    0.0000 ca      1  GRA1        0.0000
   3922 C          42.9808   57.4290    0.0000 ca      1  GRA1        0.0000
   3923 C          44.2089   58.1380    0.0000 ca      1  GRA1        0.0000
   3924 C          46.6649   55.3020    0.0000 ca      1  GRA1        0.0000
   3925 C          45.4369   56.0110    0.0000 ca      1  GRA1        0.0000
   3926 C          45.4369   57.4290    0.0000 ca      1  GRA1        0.0000
   3927 C          46.6649   58.1380    0.0000 ca      1  GRA1        0.0000
   3928 C          49.1210   55.3020    0.0000 ca      1  GRA1        0.0000
   3929 C          47.8929   56.0110    0.0000 ca      1  GRA1        0.0000
   3930 C          47.8929   57.4290    0.0000 ca      1  GRA1        0.0000
   3931 C          49.1210   58.1380    0.0000 ca      1  GRA1        0.0000
   3932 C          51.5770   55.3020    0.0000 ca      1  GRA1        0.0000
   3933 C          50.3490   56.0110    0.0000 ca      1  GRA1        0.0000
   3934 C          50.3490   57.4290    0.0000 ca      1  GRA1        0.0000
   3935 C          51.5770   58.1380    0.0000 ca      1  GRA1        0.0000
   3936 C          54.0331   55.3020    0.0000 ca      1  GRA1        0.0000
   3937 C          52.8050   56.0110    0.0000 ca      1  GRA1        0.0000
   3938 C          52.8050   57.4290    0.0000 ca      1  GRA1        0.0000
   3939 C          54.0331   58.1380    0.0000 ca      1  GRA1        0.0000
   3940 C          56.4891   55.3020    0.0000 ca      1  GRA1        0.0000
   3941 C          55.2611   56.0110    0.0000 ca      1  GRA1        0.0000
   3942 C          55.2611   57.4290    0.0000 ca      1  GRA1        0.0000
   3943 C          56.4891   58.1380    0.0000 ca      1  GRA1        0.0000
   3944 C          58.9452   55.3020    0.0000 ca      1  GRA1        0.0000
   3945 C          57.7171   56.0110    0.0000 ca      1  GRA1        0.0000
   3946 C          57.7171   57.4290    0.0000 ca      1  GRA1        0.0000
   3947 C          58.9452   58.1380    0.0000 ca      1  GRA1        0.0000
   3948 C          61.4012   55.3020    0.0000 ca      1  GRA1        0.0000
   3949 C          60.1732   56.0110    0.0000 ca      1  GRA1        0.0000
   3950 C          60.1732   57.4290    0.0000 ca      1  GRA1        0.0000
   3951 C          61.4012   58.1380    0.0000 ca      1  GRA1        0.0000
   3952 C          63.8573   55.3020    0.0000 ca      1  GRA1        0.0000
   3953 C          62.6292   56.0110    0.0000 ca      1  GRA1        0.0000
   3954 C          62.6292   57.4290    0.0000 ca      1  GRA1        0.0000
   3955 C          63.8573   58.1380    0.0000 ca      1  GRA1        0.0000
   3956 C          66.3133   55.3020    0.0000 ca      1  GRA1        0.0000
   3957 C          65.0853   56.0110    0.0000 ca      1  GRA1        0.0000
   3958 C          65.0853   57.4290    0.0000 ca      1  GRA1        0.0000
   3959 C          66.3133   58.1380    0.0000 ca      1  GRA1        0.0000
   3960 C          68.7693   55.3020    0.0000 ca      1  GRA1        0.0000
   3961 C          67.5413   56.0110    0.0000 ca      1  GRA1        0.0000
   3962 C          67.5413   57.4290    0.0000 ca      1  GRA1        0.0000
   3963 C          68.7693   58.1380    0.0000 ca      1  GRA1        0.0000
   3964 C          71.2254   55.3020    0.0000 ca      1  GRA1        0.0000
   3965 C          69.9974   56.0110    0.0000 ca      1  GRA1        0.0000
   3966 C          69.9974   57.4290    0.0000 ca      1  GRA1        0.0000
   3967 C          71.2254   58.1380    0.0000 ca      1  GRA1        0.0000
   3968 C          73.6814   55.3020    0.0000 ca      1  GRA1        0.0000
   3969 C          72.4534   56.0110    0.0000 ca      1  GRA1        0.0000
   3970 C          72.4534   57.4290    0.0000 ca      1  GRA1        0.0000
   3971 C          73.6814   58.1380    0.0000 ca      1  GRA1        0.0000
   3972 C          76.1375   55.3020    0.0000 ca      1  GRA1        0.0000
   3973 C          74.9095   56.0110    0.0000 ca      1  GRA1        0.0000
   3974 C          74.9095   57.4290    0.0000 ca      1  GRA1        0.0000
   3975 C          76.1375   58.1380    0.0000 ca      1  GRA1        0.0000
   3976 C          78.5935   55.3020    0.0000 ca      1  GRA1        0.0000
   3977 C          77.3655   56.0110    0.0000 ca      1  GRA1        0.0000
   3978 C          77.3655   57.4290    0.0000 ca      1  GRA1        0.0000
   3979 C          78.5935   58.1380    0.0000 ca      1  GRA1        0.0000
   3980 C          81.0496   55.3020    0.0000 ca      1  GRA1        0.0000
   3981 C          79.8216   56.0110    0.0000 ca      1  GRA1        0.0000
   3982 C          79.8216   57.4290    0.0000 ca      1  GRA1        0.0000
   3983 C          81.0496   58.1380    0.0000 ca      1  GRA1        0.0000
   3984 C          83.5056   55.3020    0.0000 ca      1  GRA1        0.0000
   3985 C          82.2776   56.0110    0.0000 ca      1  GRA1        0.0000
   3986 C          82.2776   57.4290    0.0000 ca      1  GRA1        0.0000
   3987 C          83.5056   58.1380    0.0000 ca      1  GRA1        0.0000
   3988 C          85.9617   55.3020    0.0000 ca      1  GRA1        0.0000
   3989 C          84.7337   56.0110    0.0000 ca      1  GRA1        0.0000
   3990 C          84.7337   57.4290    0.0000 ca      1  GRA1        0.0000
   3991 C          85.9617   58.1380    0.0000 ca      1  GRA1        0.0000
   3992 C          88.4177   55.3020    0.0000 ca      1  GRA1        0.0000
   3993 C          87.1897   56.0110    0.0000 ca      1  GRA1        0.0000
   3994 C          87.1897   57.4290    0.0000 ca      1  GRA1        0.0000
   3995 C          88.4177   58.1380    0.0000 ca      1  GRA1        0.0000
   3996 C          90.8738   55.3020    0.0000 ca      1  GRA1        0.0000
   3997 C          89.6458   56.0110    0.0000 ca      1  GRA1        0.0000
   3998 C          89.6458   57.4290    0.0000 ca      1  GRA1        0.0000
   3999 C          90.8738   58.1380    0.0000 ca      1  GRA1        0.0000
   4000 C          93.3298   55.3020    0.0000 ca      1  GRA1        0.0000
   4001 C          92.1018   56.0110    0.0000 ca      1  GRA1        0.0000
   4002 C          92.1018   57.4290    0.0000 ca      1  GRA1        0.0000
   4003 C          93.3298   58.1380    0.0000 ca      1  GRA1        0.0000
   4004 C          95.7859   55.3020    0.0000 ca      1  GRA1        0.0000
   4005 C          94.5578   56.0110    0.0000 ca      1  GRA1        0.0000
   4006 C          94.5578   57.4290    0.0000 ca      1  GRA1        0.0000
   4007 C          95.7859   58.1380    0.0000 ca      1  GRA1        0.0000
   4008 C          98.2419   55.3020    0.0000 ca      1  GRA1        0.0000
   4009 C          97.0139   56.0110    0.0000 ca      1  GRA1        0.0000
   4010 C          97.0139   57.4290    0.0000 ca      1  GRA1        0.0000
   4011 C          98.2419   58.1380    0.0000 ca      1  GRA1        0.0000
   4012 C         100.6980   55.3020    0.0000 ca      1  GRA1        0.0000
   4013 C          99.4699   56.0110    0.0000 ca      1  GRA1        0.0000
   4014 C          99.4699   57.4290    0.0000 ca      1  GRA1        0.0000
   4015 C         100.6980   58.1380    0.0000 ca      1  GRA1        0.0000
   4016 C         103.1540   55.3020    0.0000 ca      1  GRA1        0.0000
   4017 C         101.9260   56.0110    0.0000 ca      1  GRA1        0.0000
   4018 C         101.9260   57.4290    0.0000 ca      1  GRA1        0.0000
   4019 C         103.1540   58.1380    0.0000 ca      1  GRA1        0.0000
   4020 C         105.6101   55.3020    0.0000 ca      1  GRA1        0.0000
   4021 C         104.3820   56.0110    0.0000 ca      1  GRA1        0.0000
   4022 C         104.3820   57.4290    0.0000 ca      1  GRA1        0.0000
   4023 C         105.6101   58.1380    0.0000 ca      1  GRA1        0.0000
   4024 C         108.0661   55.3020    0.0000 ca      1  GRA1        0.0000
   4025 C         106.8381   56.0110    0.0000 ca      1  GRA1        0.0000
   4026 C         106.8381   57.4290    0.0000 ca      1  GRA1        0.0000
   4027 C         108.0661   58.1380    0.0000 ca      1  GRA1        0.0000
   4028 C         110.5222   55.3020    0.0000 ca      1  GRA1        0.0000
   4029 C         109.2941   56.0110    0.0000 ca      1  GRA1        0.0000
   4030 C         109.2941   57.4290    0.0000 ca      1  GRA1        0.0000
   4031 C         110.5222   58.1380    0.0000 ca      1  GRA1        0.0000
   4032 C         112.9782   55.3020    0.0000 ca      1  GRA1        0.0000
   4033 C         111.7502   56.0110    0.0000 ca      1  GRA1        0.0000
   4034 C         111.7502   57.4290    0.0000 ca      1  GRA1        0.0000
   4035 C         112.9782   58.1380    0.0000 ca      1  GRA1        0.0000
   4036 C         115.4343   55.3020    0.0000 ca      1  GRA1        0.0000
   4037 C         114.2062   56.0110    0.0000 ca      1  GRA1        0.0000
   4038 C         114.2062   57.4290    0.0000 ca      1  GRA1        0.0000
   4039 C         115.4343   58.1380    0.0000 ca      1  GRA1        0.0000
   4040 C         117.8903   55.3020    0.0000 ca      1  GRA1        0.0000
   4041 C         116.6623   56.0110    0.0000 ca      1  GRA1        0.0000
   4042 C         116.6623   57.4290    0.0000 ca      1  GRA1        0.0000
   4043 C         117.8903   58.1380    0.0000 ca      1  GRA1        0.0000
   4044 C         120.3464   55.3020    0.0000 ca      1  GRA1        0.0000
   4045 C         119.1183   56.0110    0.0000 ca      1  GRA1        0.0000
   4046 C         119.1183   57.4290    0.0000 ca      1  GRA1        0.0000
   4047 C         120.3464   58.1380    0.0000 ca      1  GRA1        0.0000
   4048 C         122.8024   55.3020    0.0000 ca      1  GRA1        0.0000
   4049 C         121.5744   56.0110    0.0000 ca      1  GRA1        0.0000
   4050 C         121.5744   57.4290    0.0000 ca      1  GRA1        0.0000
   4051 C         122.8024   58.1380    0.0000 ca      1  GRA1        0.0000
   4052 C         125.2585   55.3020    0.0000 ca      1  GRA1        0.0000
   4053 C         124.0304   56.0110    0.0000 ca      1  GRA1        0.0000
   4054 C         124.0304   57.4290    0.0000 ca      1  GRA1        0.0000
   4055 C         125.2585   58.1380    0.0000 ca      1  GRA1        0.0000
   4056 C         127.7145   55.3020    0.0000 ca      1  GRA1        0.0000
   4057 C         126.4865   56.0110    0.0000 ca      1  GRA1        0.0000
   4058 C         126.4865   57.4290    0.0000 ca      1  GRA1        0.0000
   4059 C         127.7145   58.1380    0.0000 ca      1  GRA1        0.0000
   4060 C         130.1705   55.3020    0.0000 ca      1  GRA1        0.0000
   4061 C         128.9425   56.0110    0.0000 ca      1  GRA1        0.0000
   4062 C         128.9425   57.4290    0.0000 ca      1  GRA1        0.0000
   4063 C         130.1705   58.1380    0.0000 ca      1  GRA1        0.0000
   4064 C         132.6266   55.3020    0.0000 ca      1  GRA1        0.0000
   4065 C         131.3986   56.0110    0.0000 ca      1  GRA1        0.0000
   4066 C         131.3986   57.4290    0.0000 ca      1  GRA1        0.0000
   4067 C         132.6266   58.1380    0.0000 ca      1  GRA1        0.0000
   4068 C         135.0826   55.3020    0.0000 ca      1  GRA1        0.0000
   4069 C         133.8546   56.0110    0.0000 ca      1  GRA1        0.0000
   4070 C         133.8546   57.4290    0.0000 ca      1  GRA1        0.0000
   4071 C         135.0826   58.1380    0.0000 ca      1  GRA1        0.0000
   4072 C         137.5387   55.3020    0.0000 ca      1  GRA1        0.0000
   4073 C         136.3107   56.0110    0.0000 ca      1  GRA1        0.0000
   4074 C         136.3107   57.4290    0.0000 ca      1  GRA1        0.0000
   4075 C         137.5387   58.1380    0.0000 ca      1  GRA1        0.0000
   4076 C         139.9947   55.3020    0.0000 ca      1  GRA1        0.0000
   4077 C         138.7667   56.0110    0.0000 ca      1  GRA1        0.0000
   4078 C         138.7667   57.4290    0.0000 ca      1  GRA1        0.0000
   4079 C         139.9947   58.1380    0.0000 ca      1  GRA1        0.0000
   4080 C         142.4508   55.3020    0.0000 ca      1  GRA1        0.0000
   4081 C         141.2228   56.0110    0.0000 ca      1  GRA1        0.0000
   4082 C         141.2228   57.4290    0.0000 ca      1  GRA1        0.0000
   4083 C         142.4508   58.1380    0.0000 ca      1  GRA1        0.0000
   4084 C         144.9068   55.3020    0.0000 ca      1  GRA1        0.0000
   4085 C         143.6788   56.0110    0.0000 ca      1  GRA1        0.0000
   4086 C         143.6788   57.4290    0.0000 ca      1  GRA1        0.0000
   4087 C         144.9068   58.1380    0.0000 ca      1  GRA1        0.0000
   4088 C         147.3629   55.3020    0.0000 ca      1  GRA1        0.0000
   4089 C         146.1349   56.0110    0.0000 ca      1  GRA1        0.0000
   4090 C         146.1349   57.4290    0.0000 ca      1  GRA1        0.0000
   4091 C         147.3629   58.1380    0.0000 ca      1  GRA1        0.0000
   4092 C         149.8189   55.3020    0.0000 ca      1  GRA1        0.0000
   4093 C         148.5909   56.0110    0.0000 ca      1  GRA1        0.0000
   4094 C         148.5909   57.4290    0.0000 ca      1  GRA1        0.0000
   4095 C         149.8189   58.1380    0.0000 ca      1  GRA1        0.0000
   4096 C         152.2750   55.3020    0.0000 ca      1  GRA1        0.0000
   4097 C         151.0470   56.0110    0.0000 ca      1  GRA1        0.0000
   4098 C         151.0470   57.4290    0.0000 ca      1  GRA1        0.0000
   4099 C         152.2750   58.1380    0.0000 ca      1  GRA1        0.0000
   4100 C         154.7310   55.3020    0.0000 ca      1  GRA1        0.0000
   4101 C         153.5030   56.0110    0.0000 ca      1  GRA1        0.0000
   4102 C         153.5030   57.4290    0.0000 ca      1  GRA1        0.0000
   4103 C         154.7310   58.1380    0.0000 ca      1  GRA1        0.0000
   4104 C         157.1871   55.3020    0.0000 ca      1  GRA1        0.0000
   4105 C         155.9590   56.0110    0.0000 ca      1  GRA1        0.0000
   4106 C         155.9590   57.4290    0.0000 ca      1  GRA1        0.0000
   4107 C         157.1871   58.1380    0.0000 ca      1  GRA1        0.0000
   4108 C         159.6431   55.3020    0.0000 ca      1  GRA1        0.0000
   4109 C         158.4151   56.0110    0.0000 ca      1  GRA1        0.0000
   4110 C         158.4151   57.4290    0.0000 ca      1  GRA1        0.0000
   4111 C         159.6431   58.1380    0.0000 ca      1  GRA1        0.0000
   4112 C         162.0992   55.3020    0.0000 ca      1  GRA1        0.0000
   4113 C         160.8711   56.0110    0.0000 ca      1  GRA1        0.0000
   4114 C         160.8711   57.4290    0.0000 ca      1  GRA1        0.0000
   4115 C         162.0992   58.1380    0.0000 ca      1  GRA1        0.0000
   4116 C         164.5552   55.3020    0.0000 ca      1  GRA1        0.0000
   4117 C         163.3272   56.0110    0.0000 ca      1  GRA1        0.0000
   4118 C         163.3272   57.4290    0.0000 ca      1  GRA1        0.0000
   4119 C         164.5552   58.1380    0.0000 ca      1  GRA1        0.0000
   4120 C         167.0113   55.3020    0.0000 ca      1  GRA1        0.0000
   4121 C         165.7832   56.0110    0.0000 ca      1  GRA1        0.0000
   4122 C         165.7832   57.4290    0.0000 ca      1  GRA1        0.0000
   4123 C         167.0113   58.1380    0.0000 ca      1  GRA1        0.0000
   4124 C         169.4673   55.3020    0.0000 ca      1  GRA1        0.0000
   4125 C         168.2393   56.0110    0.0000 ca      1  GRA1        0.0000
   4126 C         168.2393   57.4290    0.0000 ca      1  GRA1        0.0000
   4127 C         169.4673   58.1380    0.0000 ca      1  GRA1        0.0000
   4128 C         171.9234   55.3020    0.0000 ca      1  GRA1        0.0000
   4129 C         170.6953   56.0110    0.0000 ca      1  GRA1        0.0000
   4130 C         170.6953   57.4290    0.0000 ca      1  GRA1        0.0000
   4131 C         171.9234   58.1380    0.0000 ca      1  GRA1        0.0000
   4132 C         174.3794   55.3020    0.0000 ca      1  GRA1        0.0000
   4133 C         173.1514   56.0110    0.0000 ca      1  GRA1        0.0000
   4134 C         173.1514   57.4290    0.0000 ca      1  GRA1        0.0000
   4135 C         174.3794   58.1380    0.0000 ca      1  GRA1        0.0000
   4136 C         176.8355   55.3020    0.0000 ca      1  GRA1        0.0000
   4137 C         175.6074   56.0110    0.0000 ca      1  GRA1        0.0000
   4138 C         175.6074   57.4290    0.0000 ca      1  GRA1        0.0000
   4139 C         176.8355   58.1380    0.0000 ca      1  GRA1        0.0000
   4140 C         179.2915   55.3020    0.0000 ca      1  GRA1        0.0000
   4141 C         178.0635   56.0110    0.0000 ca      1  GRA1        0.0000
   4142 C         178.0635   57.4290    0.0000 ca      1  GRA1        0.0000
   4143 C         179.2915   58.1380    0.0000 ca      1  GRA1        0.0000
   4144 C           0.0000   59.5560    0.0000 ca      1  GRA1        0.0000
   4145 C          -1.2280   60.2650    0.0000 ca      1  GRA1        0.0000
   4146 C          -1.2280   61.6830    0.0000 ca      1  GRA1        0.0000
   4147 C           0.0000   62.3920    0.0000 ca      1  GRA1        0.0000
   4148 C           2.4560   59.5560    0.0000 ca      1  GRA1        0.0000
   4149 C           1.2280   60.2650    0.0000 ca      1  GRA1        0.0000
   4150 C           1.2280   61.6830    0.0000 ca      1  GRA1        0.0000
   4151 C           2.4560   62.3920    0.0000 ca      1  GRA1        0.0000
   4152 C           4.9121   59.5560    0.0000 ca      1  GRA1        0.0000
   4153 C           3.6841   60.2650    0.0000 ca      1  GRA1        0.0000
   4154 C           3.6841   61.6830    0.0000 ca      1  GRA1        0.0000
   4155 C           4.9121   62.3920    0.0000 ca      1  GRA1        0.0000
   4156 C           7.3681   59.5560    0.0000 ca      1  GRA1        0.0000
   4157 C           6.1401   60.2650    0.0000 ca      1  GRA1        0.0000
   4158 C           6.1401   61.6830    0.0000 ca      1  GRA1        0.0000
   4159 C           7.3681   62.3920    0.0000 ca      1  GRA1        0.0000
   4160 C           9.8242   59.5560    0.0000 ca      1  GRA1        0.0000
   4161 C           8.5962   60.2650    0.0000 ca      1  GRA1        0.0000
   4162 C           8.5962   61.6830    0.0000 ca      1  GRA1        0.0000
   4163 C           9.8242   62.3920    0.0000 ca      1  GRA1        0.0000
   4164 C          12.2802   59.5560    0.0000 ca      1  GRA1        0.0000
   4165 C          11.0522   60.2650    0.0000 ca      1  GRA1        0.0000
   4166 C          11.0522   61.6830    0.0000 ca      1  GRA1        0.0000
   4167 C          12.2802   62.3920    0.0000 ca      1  GRA1        0.0000
   4168 C          14.7363   59.5560    0.0000 ca      1  GRA1        0.0000
   4169 C          13.5083   60.2650    0.0000 ca      1  GRA1        0.0000
   4170 C          13.5083   61.6830    0.0000 ca      1  GRA1        0.0000
   4171 C          14.7363   62.3920    0.0000 ca      1  GRA1        0.0000
   4172 C          17.1923   59.5560    0.0000 ca      1  GRA1        0.0000
   4173 C          15.9643   60.2650    0.0000 ca      1  GRA1        0.0000
   4174 C          15.9643   61.6830    0.0000 ca      1  GRA1        0.0000
   4175 C          17.1923   62.3920    0.0000 ca      1  GRA1        0.0000
   4176 C          19.6484   59.5560    0.0000 ca      1  GRA1        0.0000
   4177 C          18.4204   60.2650    0.0000 ca      1  GRA1        0.0000
   4178 C          18.4204   61.6830    0.0000 ca      1  GRA1        0.0000
   4179 C          19.6484   62.3920    0.0000 ca      1  GRA1        0.0000
   4180 C          22.1044   59.5560    0.0000 ca      1  GRA1        0.0000
   4181 C          20.8764   60.2650    0.0000 ca      1  GRA1        0.0000
   4182 C          20.8764   61.6830    0.0000 ca      1  GRA1        0.0000
   4183 C          22.1044   62.3920    0.0000 ca      1  GRA1        0.0000
   4184 C          24.5605   59.5560    0.0000 ca      1  GRA1        0.0000
   4185 C          23.3325   60.2650    0.0000 ca      1  GRA1        0.0000
   4186 C          23.3325   61.6830    0.0000 ca      1  GRA1        0.0000
   4187 C          24.5605   62.3920    0.0000 ca      1  GRA1        0.0000
   4188 C          27.0165   59.5560    0.0000 ca      1  GRA1        0.0000
   4189 C          25.7885   60.2650    0.0000 ca      1  GRA1        0.0000
   4190 C          25.7885   61.6830    0.0000 ca      1  GRA1        0.0000
   4191 C          27.0165   62.3920    0.0000 ca      1  GRA1        0.0000
   4192 C          29.4726   59.5560    0.0000 ca      1  GRA1        0.0000
   4193 C          28.2446   60.2650    0.0000 ca      1  GRA1        0.0000
   4194 C          28.2446   61.6830    0.0000 ca      1  GRA1        0.0000
   4195 C          29.4726   62.3920    0.0000 ca      1  GRA1        0.0000
   4196 C          31.9286   59.5560    0.0000 ca      1  GRA1        0.0000
   4197 C          30.7006   60.2650    0.0000 ca      1  GRA1        0.0000
   4198 C          30.7006   61.6830    0.0000 ca      1  GRA1        0.0000
   4199 C          31.9286   62.3920    0.0000 ca      1  GRA1        0.0000
   4200 C          34.3847   59.5560    0.0000 ca      1  GRA1        0.0000
   4201 C          33.1566   60.2650    0.0000 ca      1  GRA1        0.0000
   4202 C          33.1566   61.6830    0.0000 ca      1  GRA1        0.0000
   4203 C          34.3847   62.3920    0.0000 ca      1  GRA1        0.0000
   4204 C          36.8407   59.5560    0.0000 ca      1  GRA1        0.0000
   4205 C          35.6127   60.2650    0.0000 ca      1  GRA1        0.0000
   4206 C          35.6127   61.6830    0.0000 ca      1  GRA1        0.0000
   4207 C          36.8407   62.3920    0.0000 ca      1  GRA1        0.0000
   4208 C          39.2968   59.5560    0.0000 ca      1  GRA1        0.0000
   4209 C          38.0687   60.2650    0.0000 ca      1  GRA1        0.0000
   4210 C          38.0687   61.6830    0.0000 ca      1  GRA1        0.0000
   4211 C          39.2968   62.3920    0.0000 ca      1  GRA1        0.0000
   4212 C          41.7528   59.5560    0.0000 ca      1  GRA1        0.0000
   4213 C          40.5248   60.2650    0.0000 ca      1  GRA1        0.0000
   4214 C          40.5248   61.6830    0.0000 ca      1  GRA1        0.0000
   4215 C          41.7528   62.3920    0.0000 ca      1  GRA1        0.0000
   4216 C          44.2089   59.5560    0.0000 ca      1  GRA1        0.0000
   4217 C          42.9808   60.2650    0.0000 ca      1  GRA1        0.0000
   4218 C          42.9808   61.6830    0.0000 ca      1  GRA1        0.0000
   4219 C          44.2089   62.3920    0.0000 ca      1  GRA1        0.0000
   4220 C          46.6649   59.5560    0.0000 ca      1  GRA1        0.0000
   4221 C          45.4369   60.2650    0.0000 ca      1  GRA1        0.0000
   4222 C          45.4369   61.6830    0.0000 ca      1  GRA1        0.0000
   4223 C          46.6649   62.3920    0.0000 ca      1  GRA1        0.0000
   4224 C          49.1210   59.5560    0.0000 ca      1  GRA1        0.0000
   4225 C          47.8929   60.2650    0.0000 ca      1  GRA1        0.0000
   4226 C          47.8929   61.6830    0.0000 ca      1  GRA1        0.0000
   4227 C          49.1210   62.3920    0.0000 ca      1  GRA1        0.0000
   4228 C          51.5770   59.5560    0.0000 ca      1  GRA1        0.0000
   4229 C          50.3490   60.2650    0.0000 ca      1  GRA1        0.0000
   4230 C          50.3490   61.6830    0.0000 ca      1  GRA1        0.0000
   4231 C          51.5770   62.3920    0.0000 ca      1  GRA1        0.0000
   4232 C          54.0331   59.5560    0.0000 ca      1  GRA1        0.0000
   4233 C          52.8050   60.2650    0.0000 ca      1  GRA1        0.0000
   4234 C          52.8050   61.6830    0.0000 ca      1  GRA1        0.0000
   4235 C          54.0331   62.3920    0.0000 ca      1  GRA1        0.0000
   4236 C          56.4891   59.5560    0.0000 ca      1  GRA1        0.0000
   4237 C          55.2611   60.2650    0.0000 ca      1  GRA1        0.0000
   4238 C          55.2611   61.6830    0.0000 ca      1  GRA1        0.0000
   4239 C          56.4891   62.3920    0.0000 ca      1  GRA1        0.0000
   4240 C          58.9452   59.5560    0.0000 ca      1  GRA1        0.0000
   4241 C          57.7171   60.2650    0.0000 ca      1  GRA1        0.0000
   4242 C          57.7171   61.6830    0.0000 ca      1  GRA1        0.0000
   4243 C          58.9452   62.3920    0.0000 ca      1  GRA1        0.0000
   4244 C          61.4012   59.5560    0.0000 ca      1  GRA1        0.0000
   4245 C          60.1732   60.2650    0.0000 ca      1  GRA1        0.0000
   4246 C          60.1732   61.6830    0.0000 ca      1  GRA1        0.0000
   4247 C          61.4012   62.3920    0.0000 ca      1  GRA1        0.0000
   4248 C          63.8573   59.5560    0.0000 ca      1  GRA1        0.0000
   4249 C          62.6292   60.2650    0.0000 ca      1  GRA1        0.0000
   4250 C          62.6292   61.6830    0.0000 ca      1  GRA1        0.0000
   4251 C          63.8573   62.3920    0.0000 ca      1  GRA1        0.0000
   4252 C          66.3133   59.5560    0.0000 ca      1  GRA1        0.0000
   4253 C          65.0853   60.2650    0.0000 ca      1  GRA1        0.0000
   4254 C          65.0853   61.6830    0.0000 ca      1  GRA1        0.0000
   4255 C          66.3133   62.3920    0.0000 ca      1  GRA1        0.0000
   4256 C          68.7693   59.5560    0.0000 ca      1  GRA1        0.0000
   4257 C          67.5413   60.2650    0.0000 ca      1  GRA1        0.0000
   4258 C          67.5413   61.6830    0.0000 ca      1  GRA1        0.0000
   4259 C          68.7693   62.3920    0.0000 ca      1  GRA1        0.0000
   4260 C          71.2254   59.5560    0.0000 ca      1  GRA1        0.0000
   4261 C          69.9974   60.2650    0.0000 ca      1  GRA1        0.0000
   4262 C          69.9974   61.6830    0.0000 ca      1  GRA1        0.0000
   4263 C          71.2254   62.3920    0.0000 ca      1  GRA1        0.0000
   4264 C          73.6814   59.5560    0.0000 ca      1  GRA1        0.0000
   4265 C          72.4534   60.2650    0.0000 ca      1  GRA1        0.0000
   4266 C          72.4534   61.6830    0.0000 ca      1  GRA1        0.0000
   4267 C          73.6814   62.3920    0.0000 ca      1  GRA1        0.0000
   4268 C          76.1375   59.5560    0.0000 ca      1  GRA1        0.0000
   4269 C          74.9095   60.2650    0.0000 ca      1  GRA1        0.0000
   4270 C          74.9095   61.6830    0.0000 ca      1  GRA1        0.0000
   4271 C          76.1375   62.3920    0.0000 ca      1  GRA1        0.0000
   4272 C          78.5935   59.5560    0.0000 ca      1  GRA1        0.0000
   4273 C          77.3655   60.2650    0.0000 ca      1  GRA1        0.0000
   4274 C          77.3655   61.6830    0.0000 ca      1  GRA1        0.0000
   4275 C          78.5935   62.3920    0.0000 ca      1  GRA1        0.0000
   4276 C          81.0496   59.5560    0.0000 ca      1  GRA1        0.0000
   4277 C          79.8216   60.2650    0.0000 ca      1  GRA1        0.0000
   4278 C          79.8216   61.6830    0.0000 ca      1  GRA1        0.0000
   4279 C          81.0496   62.3920    0.0000 ca      1  GRA1        0.0000
   4280 C          83.5056   59.5560    0.0000 ca      1  GRA1        0.0000
   4281 C          82.2776   60.2650    0.0000 ca      1  GRA1        0.0000
   4282 C          82.2776   61.6830    0.0000 ca      1  GRA1        0.0000
   4283 C          83.5056   62.3920    0.0000 ca      1  GRA1        0.0000
   4284 C          85.9617   59.5560    0.0000 ca      1  GRA1        0.0000
   4285 C          84.7337   60.2650    0.0000 ca      1  GRA1        0.0000
   4286 C          84.7337   61.6830    0.0000 ca      1  GRA1        0.0000
   4287 C          85.9617   62.3920    0.0000 ca      1  GRA1        0.0000
   4288 C          88.4177   59.5560    0.0000 ca      1  GRA1        0.0000
   4289 C          87.1897   60.2650    0.0000 ca      1  GRA1        0.0000
   4290 C          87.1897   61.6830    0.0000 ca      1  GRA1        0.0000
   4291 C          88.4177   62.3920    0.0000 ca      1  GRA1        0.0000
   4292 C          90.8738   59.5560    0.0000 ca      1  GRA1        0.0000
   4293 C          89.6458   60.2650    0.0000 ca      1  GRA1        0.0000
   4294 C          89.6458   61.6830    0.0000 ca      1  GRA1        0.0000
   4295 C          90.8738   62.3920    0.0000 ca      1  GRA1        0.0000
   4296 C          93.3298   59.5560    0.0000 ca      1  GRA1        0.0000
   4297 C          92.1018   60.2650    0.0000 ca      1  GRA1        0.0000
   4298 C          92.1018   61.6830    0.0000 ca      1  GRA1        0.0000
   4299 C          93.3298   62.3920    0.0000 ca      1  GRA1        0.0000
   4300 C          95.7859   59.5560    0.0000 ca      1  GRA1        0.0000
   4301 C          94.5578   60.2650    0.0000 ca      1  GRA1        0.0000
   4302 C          94.5578   61.6830    0.0000 ca      1  GRA1        0.0000
   4303 C          95.7859   62.3920    0.0000 ca      1  GRA1        0.0000
   4304 C          98.2419   59.5560    0.0000 ca      1  GRA1        0.0000
   4305 C          97.0139   60.2650    0.0000 ca      1  GRA1        0.0000
   4306 C          97.0139   61.6830    0.0000 ca      1  GRA1        0.0000
   4307 C          98.2419   62.3920    0.0000 ca      1  GRA1        0.0000
   4308 C         100.6980   59.5560    0.0000 ca      1  GRA1        0.0000
   4309 C          99.4699   60.2650    0.0000 ca      1  GRA1        0.0000
   4310 C          99.4699   61.6830    0.0000 ca      1  GRA1        0.0000
   4311 C         100.6980   62.3920    0.0000 ca      1  GRA1        0.0000
   4312 C         103.1540   59.5560    0.0000 ca      1  GRA1        0.0000
   4313 C         101.9260   60.2650    0.0000 ca      1  GRA1        0.0000
   4314 C         101.9260   61.6830    0.0000 ca      1  GRA1        0.0000
   4315 C         103.1540   62.3920    0.0000 ca      1  GRA1        0.0000
   4316 C         105.6101   59.5560    0.0000 ca      1  GRA1        0.0000
   4317 C         104.3820   60.2650    0.0000 ca      1  GRA1        0.0000
   4318 C         104.3820   61.6830    0.0000 ca      1  GRA1        0.0000
   4319 C         105.6101   62.3920    0.0000 ca      1  GRA1        0.0000
   4320 C         108.0661   59.5560    0.0000 ca      1  GRA1        0.0000
   4321 C         106.8381   60.2650    0.0000 ca      1  GRA1        0.0000
   4322 C         106.8381   61.6830    0.0000 ca      1  GRA1        0.0000
   4323 C         108.0661   62.3920    0.0000 ca      1  GRA1        0.0000
   4324 C         110.5222   59.5560    0.0000 ca      1  GRA1        0.0000
   4325 C         109.2941   60.2650    0.0000 ca      1  GRA1        0.0000
   4326 C         109.2941   61.6830    0.0000 ca      1  GRA1        0.0000
   4327 C         110.5222   62.3920    0.0000 ca      1  GRA1        0.0000
   4328 C         112.9782   59.5560    0.0000 ca      1  GRA1        0.0000
   4329 C         111.7502   60.2650    0.0000 ca      1  GRA1        0.0000
   4330 C         111.7502   61.6830    0.0000 ca      1  GRA1        0.0000
   4331 C         112.9782   62.3920    0.0000 ca      1  GRA1        0.0000
   4332 C         115.4343   59.5560    0.0000 ca      1  GRA1        0.0000
   4333 C         114.2062   60.2650    0.0000 ca      1  GRA1        0.0000
   4334 C         114.2062   61.6830    0.0000 ca      1  GRA1        0.0000
   4335 C         115.4343   62.3920    0.0000 ca      1  GRA1        0.0000
   4336 C         117.8903   59.5560    0.0000 ca      1  GRA1        0.0000
   4337 C         116.6623   60.2650    0.0000 ca      1  GRA1        0.0000
   4338 C         116.6623   61.6830    0.0000 ca      1  GRA1        0.0000
   4339 C         117.8903   62.3920    0.0000 ca      1  GRA1        0.0000
   4340 C         120.3464   59.5560    0.0000 ca      1  GRA1        0.0000
   4341 C         119.1183   60.2650    0.0000 ca      1  GRA1        0.0000
   4342 C         119.1183   61.6830    0.0000 ca      1  GRA1        0.0000
   4343 C         120.3464   62.3920    0.0000 ca      1  GRA1        0.0000
   4344 C         122.8024   59.5560    0.0000 ca      1  GRA1        0.0000
   4345 C         121.5744   60.2650    0.0000 ca      1  GRA1        0.0000
   4346 C         121.5744   61.6830    0.0000 ca      1  GRA1        0.0000
   4347 C         122.8024   62.3920    0.0000 ca      1  GRA1        0.0000
   4348 C         125.2585   59.5560    0.0000 ca      1  GRA1        0.0000
   4349 C         124.0304   60.2650    0.0000 ca      1  GRA1        0.0000
   4350 C         124.0304   61.6830    0.0000 ca      1  GRA1        0.0000
   4351 C         125.2585   62.3920    0.0000 ca      1  GRA1        0.0000
   4352 C         127.7145   59.5560    0.0000 ca      1  GRA1        0.0000
   4353 C         126.4865   60.2650    0.0000 ca      1  GRA1        0.0000
   4354 C         126.4865   61.6830    0.0000 ca      1  GRA1        0.0000
   4355 C         127.7145   62.3920    0.0000 ca      1  GRA1        0.0000
   4356 C         130.1705   59.5560    0.0000 ca      1  GRA1        0.0000
   4357 C         128.9425   60.2650    0.0000 ca      1  GRA1        0.0000
   4358 C         128.9425   61.6830    0.0000 ca      1  GRA1        0.0000
   4359 C         130.1705   62.3920    0.0000 ca      1  GRA1        0.0000
   4360 C         132.6266   59.5560    0.0000 ca      1  GRA1        0.0000
   4361 C         131.3986   60.2650    0.0000 ca      1  GRA1        0.0000
   4362 C         131.3986   61.6830    0.0000 ca      1  GRA1        0.0000
   4363 C         132.6266   62.3920    0.0000 ca      1  GRA1        0.0000
   4364 C         135.0826   59.5560    0.0000 ca      1  GRA1        0.0000
   4365 C         133.8546   60.2650    0.0000 ca      1  GRA1        0.0000
   4366 C         133.8546   61.6830    0.0000 ca      1  GRA1        0.0000
   4367 C         135.0826   62.3920    0.0000 ca      1  GRA1        0.0000
   4368 C         137.5387   59.5560    0.0000 ca      1  GRA1        0.0000
   4369 C         136.3107   60.2650    0.0000 ca      1  GRA1        0.0000
   4370 C         136.3107   61.6830    0.0000 ca      1  GRA1        0.0000
   4371 C         137.5387   62.3920    0.0000 ca      1  GRA1        0.0000
   4372 C         139.9947   59.5560    0.0000 ca      1  GRA1        0.0000
   4373 C         138.7667   60.2650    0.0000 ca      1  GRA1        0.0000
   4374 C         138.7667   61.6830    0.0000 ca      1  GRA1        0.0000
   4375 C         139.9947   62.3920    0.0000 ca      1  GRA1        0.0000
   4376 C         142.4508   59.5560    0.0000 ca      1  GRA1        0.0000
   4377 C         141.2228   60.2650    0.0000 ca      1  GRA1        0.0000
   4378 C         141.2228   61.6830    0.0000 ca      1  GRA1        0.0000
   4379 C         142.4508   62.3920    0.0000 ca      1  GRA1        0.0000
   4380 C         144.9068   59.5560    0.0000 ca      1  GRA1        0.0000
   4381 C         143.6788   60.2650    0.0000 ca      1  GRA1        0.0000
   4382 C         143.6788   61.6830    0.0000 ca      1  GRA1        0.0000
   4383 C         144.9068   62.3920    0.0000 ca      1  GRA1        0.0000
   4384 C         147.3629   59.5560    0.0000 ca      1  GRA1        0.0000
   4385 C         146.1349   60.2650    0.0000 ca      1  GRA1        0.0000
   4386 C         146.1349   61.6830    0.0000 ca      1  GRA1        0.0000
   4387 C         147.3629   62.3920    0.0000 ca      1  GRA1        0.0000
   4388 C         149.8189   59.5560    0.0000 ca      1  GRA1        0.0000
   4389 C         148.5909   60.2650    0.0000 ca      1  GRA1        0.0000
   4390 C         148.5909   61.6830    0.0000 ca      1  GRA1        0.0000
   4391 C         149.8189   62.3920    0.0000 ca      1  GRA1        0.0000
   4392 C         152.2750   59.5560    0.0000 ca      1  GRA1        0.0000
   4393 C         151.0470   60.2650    0.0000 ca      1  GRA1        0.0000
   4394 C         151.0470   61.6830    0.0000 ca      1  GRA1        0.0000
   4395 C         152.2750   62.3920    0.0000 ca      1  GRA1        0.0000
   4396 C         154.7310   59.5560    0.0000 ca      1  GRA1        0.0000
   4397 C         153.5030   60.2650    0.0000 ca      1  GRA1        0.0000
   4398 C         153.5030   61.6830    0.0000 ca      1  GRA1        0.0000
   4399 C         154.7310   62.3920    0.0000 ca      1  GRA1        0.0000
   4400 C         157.1871   59.5560    0.0000 ca      1  GRA1        0.0000
   4401 C         155.9590   60.2650    0.0000 ca      1  GRA1        0.0000
   4402 C         155.9590   61.6830    0.0000 ca      1  GRA1        0.0000
   4403 C         157.1871   62.3920    0.0000 ca      1  GRA1        0.0000
   4404 C         159.6431   59.5560    0.0000 ca      1  GRA1        0.0000
   4405 C         158.4151   60.2650    0.0000 ca      1  GRA1        0.0000
   4406 C         158.4151   61.6830    0.0000 ca      1  GRA1        0.0000
   4407 C         159.6431   62.3920    0.0000 ca      1  GRA1        0.0000
   4408 C         162.0992   59.5560    0.0000 ca      1  GRA1        0.0000
   4409 C         160.8711   60.2650    0.0000 ca      1  GRA1        0.0000
   4410 C         160.8711   61.6830    0.0000 ca      1  GRA1        0.0000
   4411 C         162.0992   62.3920    0.0000 ca      1  GRA1        0.0000
   4412 C         164.5552   59.5560    0.0000 ca      1  GRA1        0.0000
   4413 C         163.3272   60.2650    0.0000 ca      1  GRA1        0.0000
   4414 C         163.3272   61.6830    0.0000 ca      1  GRA1        0.0000
   4415 C         164.5552   62.3920    0.0000 ca      1  GRA1        0.0000
   4416 C         167.0113   59.5560    0.0000 ca      1  GRA1        0.0000
   4417 C         165.7832   60.2650    0.0000 ca      1  GRA1        0.0000
   4418 C         165.7832   61.6830    0.0000 ca      1  GRA1        0.0000
   4419 C         167.0113   62.3920    0.0000 ca      1  GRA1        0.0000
   4420 C         169.4673   59.5560    0.0000 ca      1  GRA1        0.0000
   4421 C         168.2393   60.2650    0.0000 ca      1  GRA1        0.0000
   4422 C         168.2393   61.6830    0.0000 ca      1  GRA1        0.0000
   4423 C         169.4673   62.3920    0.0000 ca      1  GRA1        0.0000
   4424 C         171.9234   59.5560    0.0000 ca      1  GRA1        0.0000
   4425 C         170.6953   60.2650    0.0000 ca      1  GRA1        0.0000
   4426 C         170.6953   61.6830    0.0000 ca      1  GRA1        0.0000
   4427 C         171.9234   62.3920    0.0000 ca      1  GRA1        0.0000
   4428 C         174.3794   59.5560    0.0000 ca      1  GRA1        0.0000
   4429 C         173.1514   60.2650    0.0000 ca      1  GRA1        0.0000
   4430 C         173.1514   61.6830    0.0000 ca      1  GRA1        0.0000
   4431 C         174.3794   62.3920    0.0000 ca      1  GRA1        0.0000
   4432 C         176.8355   59.5560    0.0000 ca      1  GRA1        0.0000
   4433 C         175.6074   60.2650    0.0000 ca      1  GRA1        0.0000
   4434 C         175.6074   61.6830    0.0000 ca      1  GRA1        0.0000
   4435 C         176.8355   62.3920    0.0000 ca      1  GRA1        0.0000
   4436 C         179.2915   59.5560    0.0000 ca      1  GRA1        0.0000
   4437 C         178.0635   60.2650    0.0000 ca      1  GRA1        0.0000
   4438 C         178.0635   61.6830    0.0000 ca      1  GRA1        0.0000
   4439 C         179.2915   62.3920    0.0000 ca      1  GRA1        0.0000
   4440 C         170.6953   27.6510    0.0000 ca      1  GRA1        0.0000
@<TRIPOS>BOND
     1     1     2    1
     2     1     6    1
     3     2     3    1
     4     3     4    1
     5     4     7    1
     6     4   297    1
     7     5     6    1
     8     5    10    1
     9     6     7    1
    10     7     8    1
    11     8    11    1
    12     8   301    1
    13     9    14    1
    14     9    10    1
    15    10    11    1
    16    11    12    1
    17    12    15    1
    18    12   305    1
    19    13    18    1
    20    13    14    1
    21    14    15    1
    22    15    16    1
    23    16    19    1
    24    16   309    1
    25    17    22    1
    26    17    18    1
    27    18    19    1
    28    19    20    1
    29    20    23    1
    30    20   313    1
    31    21    22    1
    32    21    26    1
    33    22    23    1
    34    23    24    1
    35    24    27    1
    36    24   317    1
    37    25    26    1
    38    25    30    1
    39    26    27    1
    40    27    28    1
    41    28    31    1
    42    28   321    1
    43    29    34    1
    44    29    30    1
    45    30    31    1
    46    31    32    1
    47    32    35    1
    48    32   325    1
    49    33    38    1
    50    33    34    1
    51    34    35    1
    52    35    36    1
    53    36    39    1
    54    36   329    1
    55    37    42    1
    56    37    38    1
    57    38    39    1
    58    39    40    1
    59    40    43    1
    60    40   333    1
    61    41    42    1
    62    41    46    1
    63    42    43    1
    64    43    44    1
    65    44    47    1
    66    44   337    1
    67    45    46    1
    68    45    50    1
    69    46    47    1
    70    47    48    1
    71    48    51    1
    72    48   341    1
    73    49    54    1
    74    49    50    1
    75    50    51    1
    76    51    52    1
    77    52    55    1
    78    52   345    1
    79    53    54    1
    80    53    58    1
    81    54    55    1
    82    55    56    1
    83    56    59    1
    84    56   349    1
    85    57    62    1
    86    57    58    1
    87    58    59    1
    88    59    60    1
    89    60    63    1
    90    60   353    1
    91    61    62    1
    92    61    66    1
    93    62    63    1
    94    63    64    1
    95    64    67    1
    96    64   357    1
    97    65    66    1
    98    65    70    1
    99    66    67    1
   100    67    68    1
   101    68    71    1
   102    68   361    1
   103    69    74    1
   104    69    70    1
   105    70    71    1
   106    71    72    1
   107    72    75    1
   108    72   365    1
   109    73    78    1
   110    73    74    1
   111    74    75    1
   112    75    76    1
   113    76    79    1
   114    76   369    1
   115    77    82    1
   116    77    78    1
   117    78    79    1
   118    79    80    1
   119    80    83    1
   120    80   373    1
   121    81    82    1
   122    81    86    1
   123    82    83    1
   124    83    84    1
   125    84    87    1
   126    84   377    1
   127    85    86    1
   128    85    90    1
   129    86    87    1
   130    87    88    1
   131    88    91    1
   132    88   381    1
   133    89    94    1
   134    89    90    1
   135    90    91    1
   136    91    92    1
   137    92    95    1
   138    92   385    1
   139    93    98    1
   140    93    94    1
   141    94    95    1
   142    95    96    1
   143    96    99    1
   144    96   389    1
   145    97   102    1
   146    97    98    1
   147    98    99    1
   148    99   100    1
   149   100   103    1
   150   100   393    1
   151   101   102    1
   152   101   106    1
   153   102   103    1
   154   103   104    1
   155   104   107    1
   156   104   397    1
   157   105   106    1
   158   105   110    1
   159   106   107    1
   160   107   108    1
   161   108   111    1
   162   108   401    1
   163   109   114    1
   164   109   110    1
   165   110   111    1
   166   111   112    1
   167   112   115    1
   168   112   405    1
   169   113   118    1
   170   113   114    1
   171   114   115    1
   172   115   116    1
   173   116   119    1
   174   116   409    1
   175   117   122    1
   176   117   118    1
   177   118   119    1
   178   119   120    1
   179   120   123    1
   180   120   413    1
   181   121   122    1
   182   121   126    1
   183   122   123    1
   184   123   124    1
   185   124   127    1
   186   124   417    1
   187   125   126    1
   188   125   130    1
   189   126   127    1
   190   127   128    1
   191   128   131    1
   192   128   421    1
   193   129   134    1
   194   129   130    1
   195   130   131    1
   196   131   132    1
   197   132   135    1
   198   132   425    1
   199   133   134    1
   200   133   138    1
   201   134   135    1
   202   135   136    1
   203   136   139    1
   204   136   429    1
   205   137   142    1
   206   137   138    1
   207   138   139    1
   208   139   140    1
   209   140   143    1
   210   140   433    1
   211   141   142    1
   212   141   146    1
   213   142   143    1
   214   143   144    1
   215   144   147    1
   216   144   437    1
   217   145   146    1
   218   145   150    1
   219   146   147    1
   220   147   148    1
   221   148   151    1
   222   148   441    1
   223   149   154    1
   224   149   150    1
   225   150   151    1
   226   151   152    1
   227   152   155    1
   228   152   445    1
   229   153   158    1
   230   153   154    1
   231   154   155    1
   232   155   156    1
   233   156   159    1
   234   156   449    1
   235   157   162    1
   236   157   158    1
   237   158   159    1
   238   159   160    1
   239   160   163    1
   240   160   453    1
   241   161   162    1
   242   161   166    1
   243   162   163    1
   244   163   164    1
   245   164   167    1
   246   164   457    1
   247   165   166    1
   248   165   170    1
   249   166   167    1
   250   167   168    1
   251   168   171    1
   252   168   461    1
   253   169   174    1
   254   169   170    1
   255   170   171    1
   256   171   172    1
   257   172   175    1
   258   172   465    1
   259   173   178    1
   260   173   174    1
   261   174   175    1
   262   175   176    1
   263   176   179    1
   264   176   469    1
   265   177   182    1
   266   177   178    1
   267   178   179    1
   268   179   180    1
   269   180   183    1
   270   180   473    1
   271   181   182    1
   272   181   186    1
   273   182   183    1
   274   183   184    1
   275   184   187    1
   276   184   477    1
   277   185   186    1
   278   185   190    1
   279   186   187    1
   280   187   188    1
   281   188   191    1
   282   188   481    1
   283   189   194    1
   284   189   190    1
   285   190   191    1
   286   191   192    1
   287   192   195    1
   288   192   485    1
   289   193   198    1
   290   193   194    1
   291   194   195    1
   292   195   196    1
   293   196   199    1
   294   196   489    1
   295   197   202    1
   296   197   198    1
   297   198   199    1
   298   199   200    1
   299   200   203    1
   300   200   493    1
   301   201   202    1
   302   201   206    1
   303   202   203    1
   304   203   204    1
   305   204   207    1
   306   204   497    1
   307   205   210    1
   308   205   206    1
   309   206   207    1
   310   207   208    1
   311   208   211    1
   312   208   501    1
   313   209   214    1
   314   209   210    1
   315   210   211    1
   316   211   212    1
   317   212   215    1
   318   212   505    1
   319   213   214    1
   320   213   218    1
   321   214   215    1
   322   215   216    1
   323   216   219    1
   324   216   509    1
   325   217   218    1
   326   217   222    1
   327   218   219    1
   328   219   220    1
   329   220   223    1
   330   220   513    1
   331   221   222    1
   332   221   226    1
   333   222   223    1
   334   223   224    1
   335   224   227    1
   336   224   517    1
   337   225   230    1
   338   225   226    1
   339   226   227    1
   340   227   228    1
   341   228   231    1
   342   228   521    1
   343   229   234    1
   344   229   230    1
   345   230   231    1
   346   231   232    1
   347   232   235    1
   348   232   525    1
   349   233   238    1
   350   233   234    1
   351   234   235    1
   352   235   236    1
   353   236   239    1
   354   236   529    1
   355   237   238    1
   356   237   242    1
   357   238   239    1
   358   239   240    1
   359   240   243    1
   360   240   533    1
   361   241   242    1
   362   241   246    1
   363   242   243    1
   364   243   244    1
   365   244   247    1
   366   244   537    1
   367   245   250    1
   368   245   246    1
   369   246   247    1
   370   247   248    1
   371   248   251    1
   372   248   541    1
   373   249   254    1
   374   249   250    1
   375   250   251    1
   376   251   252    1
   377   252   255    1
   378   252   545    1
   379   253   258    1
   380   253   254    1
   381   254   255    1
   382   255   256    1
   383   256   259    1
   384   256   549    1
   385   257   258    1
   386   257   262    1
   387   258   259    1
   388   259   260    1
   389   260   263    1
   390   260   553    1
   391   261   262    1
   392   261   266    1
   393   262   263    1
   394   263   264    1
   395   264   267    1
   396   264   557    1
   397   265   266    1
   398   265   270    1
   399   266   267    1
   400   267   268    1
   401   268   271    1
   402   268   561    1
   403   269   274    1
   404   269   270    1
   405   270   271    1
   406   271   272    1
   407   272   275    1
   408   272   565    1
   409   273   278    1
   410   273   274    1
   411   274   275    1
   412   275   276    1
   413   276   279    1
   414   276   569    1
   415   277   278    1
   416   277   282    1
   417   278   279    1
   418   279   280    1
   419   280   283    1
   420   280   573    1
   421   281   282    1
   422   281   286    1
   423   282   283    1
   424   283   284    1
   425   284   287    1
   426   284   577    1
   427   285   290    1
   428   285   286    1
   429   286   287    1
   430   287   288    1
   431   288   291    1
   432   288   581    1
   433   289   294    1
   434   289   290    1
   435   290   291    1
   436   291   292    1
   437   292   295    1
   438   292   585    1
   439   293   294    1
   440   294   295    1
   441   295   296    1
   442   296   589    1
   443   297   298    1
   444   297   302    1
   445   298   299    1
   446   299   300    1
   447   300   303    1
   448   300   593    1
   449   301   302    1
   450   301   306    1
   451   302   303    1
   452   303   304    1
   453   304   307    1
   454   304   597    1
   455   305   310    1
   456   305   306    1
   457   306   307    1
   458   307   308    1
   459   308   311    1
   460   308   601    1
   461   309   314    1
   462   309   310    1
   463   310   311    1
   464   311   312    1
   465   312   315    1
   466   312   605    1
   467   313   318    1
   468   313   314    1
   469   314   315    1
   470   315   316    1
   471   316   319    1
   472   316   609    1
   473   317   318    1
   474   317   322    1
   475   318   319    1
   476   319   320    1
   477   320   323    1
   478   320   613    1
   479   321   322    1
   480   321   326    1
   481   322   323    1
   482   323   324    1
   483   324   327    1
   484   324   617    1
   485   325   330    1
   486   325   326    1
   487   326   327    1
   488   327   328    1
   489   328   331    1
   490   328   621    1
   491   329   334    1
   492   329   330    1
   493   330   331    1
   494   331   332    1
   495   332   335    1
   496   332   625    1
   497   333   338    1
   498   333   334    1
   499   334   335    1
   500   335   336    1
   501   336   339    1
   502   336   629    1
   503   337   338    1
   504   337   342    1
   505   338   339    1
   506   339   340    1
   507   340   343    1
   508   340   633    1
   509   341   342    1
   510   341   346    1
   511   342   343    1
   512   343   344    1
   513   344   347    1
   514   344   637    1
   515   345   350    1
   516   345   346    1
   517   346   347    1
   518   347   348    1
   519   348   351    1
   520   348   641    1
   521   349   354    1
   522   349   350    1
   523   350   351    1
   524   351   352    1
   525   352   355    1
   526   352   645    1
   527   353   358    1
   528   353   354    1
   529   354   355    1
   530   355   356    1
   531   356   359    1
   532   356   649    1
   533   357   358    1
   534   357   362    1
   535   358   359    1
   536   359   360    1
   537   360   363    1
   538   360   653    1
   539   361   362    1
   540   361   366    1
   541   362   363    1
   542   363   364    1
   543   364   367    1
   544   364   657    1
   545   365   370    1
   546   365   366    1
   547   366   367    1
   548   367   368    1
   549   368   371    1
   550   368   661    1
   551   369   370    1
   552   369   374    1
   553   370   371    1
   554   371   372    1
   555   372   375    1
   556   372   665    1
   557   373   378    1
   558   373   374    1
   559   374   375    1
   560   375   376    1
   561   376   379    1
   562   376   669    1
   563   377   378    1
   564   377   382    1
   565   378   379    1
   566   379   380    1
   567   380   383    1
   568   380   673    1
   569   381   382    1
   570   381   386    1
   571   382   383    1
   572   383   384    1
   573   384   387    1
   574   384   677    1
   575   385   390    1
   576   385   386    1
   577   386   387    1
   578   387   388    1
   579   388   391    1
   580   388   681    1
   581   389   394    1
   582   389   390    1
   583   390   391    1
   584   391   392    1
   585   392   395    1
   586   392   685    1
   587   393   398    1
   588   393   394    1
   589   394   395    1
   590   395   396    1
   591   396   399    1
   592   396   689    1
   593   397   398    1
   594   397   402    1
   595   398   399    1
   596   399   400    1
   597   400   403    1
   598   400   693    1
   599   401   402    1
   600   401   406    1
   601   402   403    1
   602   403   404    1
   603   404   407    1
   604   404   697    1
   605   405   410    1
   606   405   406    1
   607   406   407    1
   608   407   408    1
   609   408   411    1
   610   408   701    1
   611   409   414    1
   612   409   410    1
   613   410   411    1
   614   411   412    1
   615   412   415    1
   616   412   705    1
   617   413   418    1
   618   413   414    1
   619   414   415    1
   620   415   416    1
   621   416   419    1
   622   416   709    1
   623   417   418    1
   624   417   422    1
   625   418   419    1
   626   419   420    1
   627   420   423    1
   628   420   713    1
   629   421   422    1
   630   421   426    1
   631   422   423    1
   632   423   424    1
   633   424   427    1
   634   424   717    1
   635   425   430    1
   636   425   426    1
   637   426   427    1
   638   427   428    1
   639   428   431    1
   640   428   721    1
   641   429   434    1
   642   429   430    1
   643   430   431    1
   644   431   432    1
   645   432   435    1
   646   432   725    1
   647   433   438    1
   648   433   434    1
   649   434   435    1
   650   435   436    1
   651   436   439    1
   652   436   729    1
   653   437   438    1
   654   437   442    1
   655   438   439    1
   656   439   440    1
   657   440   443    1
   658   440   733    1
   659   441   442    1
   660   441   446    1
   661   442   443    1
   662   443   444    1
   663   444   447    1
   664   444   737    1
   665   445   450    1
   666   445   446    1
   667   446   447    1
   668   447   448    1
   669   448   451    1
   670   448   741    1
   671   449   450    1
   672   449   454    1
   673   450   451    1
   674   451   452    1
   675   452   455    1
   676   452   745    1
   677   453   458    1
   678   453   454    1
   679   454   455    1
   680   455   456    1
   681   456   459    1
   682   456   749    1
   683   457   458    1
   684   457   462    1
   685   458   459    1
   686   459   460    1
   687   460   463    1
   688   460   753    1
   689   461   462    1
   690   461   466    1
   691   462   463    1
   692   463   464    1
   693   464   467    1
   694   464   757    1
   695   465   470    1
   696   465   466    1
   697   466   467    1
   698   467   468    1
   699   468   471    1
   700   468   761    1
   701   469   474    1
   702   469   470    1
   703   470   471    1
   704   471   472    1
   705   472   475    1
   706   472   765    1
   707   473   478    1
   708   473   474    1
   709   474   475    1
   710   475   476    1
   711   476   479    1
   712   476   769    1
   713   477   478    1
   714   477   482    1
   715   478   479    1
   716   479   480    1
   717   480   483    1
   718   480   773    1
   719   481   482    1
   720   481   486    1
   721   482   483    1
   722   483   484    1
   723   484   487    1
   724   484   777    1
   725   485   490    1
   726   485   486    1
   727   486   487    1
   728   487   488    1
   729   488   491    1
   730   488   781    1
   731   489   494    1
   732   489   490    1
   733   490   491    1
   734   491   492    1
   735   492   495    1
   736   492   785    1
   737   493   498    1
   738   493   494    1
   739   494   495    1
   740   495   496    1
   741   496   499    1
   742   496   789    1
   743   497   498    1
   744   497   502    1
   745   498   499    1
   746   499   500    1
   747   500   503    1
   748   500   793    1
   749   501   502    1
   750   501   506    1
   751   502   503    1
   752   503   504    1
   753   504   507    1
   754   504   797    1
   755   505   510    1
   756   505   506    1
   757   506   507    1
   758   507   508    1
   759   508   511    1
   760   508   801    1
   761   509   514    1
   762   509   510    1
   763   510   511    1
   764   511   512    1
   765   512   515    1
   766   512   805    1
   767   513   514    1
   768   513   518    1
   769   514   515    1
   770   515   516    1
   771   516   519    1
   772   516   809    1
   773   517   518    1
   774   517   522    1
   775   518   519    1
   776   519   520    1
   777   520   523    1
   778   520   813    1
   779   521   526    1
   780   521   522    1
   781   522   523    1
   782   523   524    1
   783   524   527    1
   784   524   817    1
   785   525   530    1
   786   525   526    1
   787   526   527    1
   788   527   528    1
   789   528   531    1
   790   528   821    1
   791   529   530    1
   792   529   534    1
   793   530   531    1
   794   531   532    1
   795   532   535    1
   796   532   825    1
   797   533   534    1
   798   533   538    1
   799   534   535    1
   800   535   536    1
   801   536   539    1
   802   536   829    1
   803   537   538    1
   804   537   542    1
   805   538   539    1
   806   539   540    1
   807   540   543    1
   808   540   833    1
   809   541   546    1
   810   541   542    1
   811   542   543    1
   812   543   544    1
   813   544   547    1
   814   544   837    1
   815   545   550    1
   816   545   546    1
   817   546   547    1
   818   547   548    1
   819   548   551    1
   820   548   841    1
   821   549   554    1
   822   549   550    1
   823   550   551    1
   824   551   552    1
   825   552   555    1
   826   552   845    1
   827   553   554    1
   828   553   558    1
   829   554   555    1
   830   555   556    1
   831   556   559    1
   832   556   849    1
   833   557   558    1
   834   557   562    1
   835   558   559    1
   836   559   560    1
   837   560   563    1
   838   560   853    1
   839   561   566    1
   840   561   562    1
   841   562   563    1
   842   563   564    1
   843   564   567    1
   844   564   857    1
   845   565   570    1
   846   565   566    1
   847   566   567    1
   848   567   568    1
   849   568   571    1
   850   568   861    1
   851   569   574    1
   852   569   570    1
   853   570   571    1
   854   571   572    1
   855   572   575    1
   856   572   865    1
   857   573   574    1
   858   573   578    1
   859   574   575    1
   860   575   576    1
   861   576   579    1
   862   576   869    1
   863   577   578    1
   864   577   582    1
   865   578   579    1
   866   579   580    1
   867   580   583    1
   868   580   873    1
   869   581   582    1
   870   581   586    1
   871   582   583    1
   872   583   584    1
   873   584   587    1
   874   584   877    1
   875   585   590    1
   876   585   586    1
   877   586   587    1
   878   587   588    1
   879   588   591    1
   880   588   881    1
   881   589   590    1
   882   590   591    1
   883   591   592    1
   884   592   885    1
   885   593   594    1
   886   593   598    1
   887   594   595    1
   888   595   596    1
   889   596   599    1
   890   596   889    1
   891   597   598    1
   892   597   602    1
   893   598   599    1
   894   599   600    1
   895   600   603    1
   896   600   893    1
   897   601   606    1
   898   601   602    1
   899   602   603    1
   900   603   604    1
   901   604   607    1
   902   604   897    1
   903   605   606    1
   904   605   610    1
   905   606   607    1
   906   607   608    1
   907   608   611    1
   908   608   901    1
   909   609   614    1
   910   609   610    1
   911   610   611    1
   912   611   612    1
   913   612   615    1
   914   612   905    1
   915   613   614    1
   916   613   618    1
   917   614   615    1
   918   615   616    1
   919   616   619    1
   920   616   909    1
   921   617   618    1
   922   617   622    1
   923   618   619    1
   924   619   620    1
   925   620   623    1
   926   620   913    1
   927   621   626    1
   928   621   622    1
   929   622   623    1
   930   623   624    1
   931   624   627    1
   932   624   917    1
   933   625   630    1
   934   625   626    1
   935   626   627    1
   936   627   628    1
   937   628   631    1
   938   628   921    1
   939   629   634    1
   940   629   630    1
   941   630   631    1
   942   631   632    1
   943   632   635    1
   944   632   925    1
   945   633   634    1
   946   633   638    1
   947   634   635    1
   948   635   636    1
   949   636   639    1
   950   636   929    1
   951   637   638    1
   952   637   642    1
   953   638   639    1
   954   639   640    1
   955   640   643    1
   956   640   933    1
   957   641   646    1
   958   641   642    1
   959   642   643    1
   960   643   644    1
   961   644   647    1
   962   644   937    1
   963   645   650    1
   964   645   646    1
   965   646   647    1
   966   647   648    1
   967   648   651    1
   968   648   941    1
   969   649   654    1
   970   649   650    1
   971   650   651    1
   972   651   652    1
   973   652   655    1
   974   652   945    1
   975   653   654    1
   976   653   658    1
   977   654   655    1
   978   655   656    1
   979   656   659    1
   980   656   949    1
   981   657   658    1
   982   657   662    1
   983   658   659    1
   984   659   660    1
   985   660   663    1
   986   660   953    1
   987   661   666    1
   988   661   662    1
   989   662   663    1
   990   663   664    1
   991   664   667    1
   992   664   957    1
   993   665   670    1
   994   665   666    1
   995   666   667    1
   996   667   668    1
   997   668   671    1
   998   668   961    1
   999   669   674    1
  1000   669   670    1
  1001   670   671    1
  1002   671   672    1
  1003   672   675    1
  1004   672   965    1
  1005   673   674    1
  1006   673   678    1
  1007   674   675    1
  1008   675   676    1
  1009   676   679    1
  1010   676   969    1
  1011   677   678    1
  1012   677   682    1
  1013   678   679    1
  1014   679   680    1
  1015   680   683    1
  1016   680   973    1
  1017   681   686    1
  1018   681   682    1
  1019   682   683    1
  1020   683   684    1
  1021   684   687    1
  1022   684   977    1
  1023   685   686    1
  1024   685   690    1
  1025   686   687    1
  1026   687   688    1
  1027   688   691    1
  1028   688   981    1
  1029   689   694    1
  1030   689   690    1
  1031   690   691    1
  1032   691   692    1
  1033   692   695    1
  1034   692   985    1
  1035   693   694    1
  1036   693   698    1
  1037   694   695    1
  1038   695   696    1
  1039   696   699    1
  1040   696   989    1
  1041   697   698    1
  1042   697   702    1
  1043   698   699    1
  1044   699   700    1
  1045   700   703    1
  1046   700   993    1
  1047   701   706    1
  1048   701   702    1
  1049   702   703    1
  1050   703   704    1
  1051   704   707    1
  1052   704   997    1
  1053   705   710    1
  1054   705   706    1
  1055   706   707    1
  1056   707   708    1
  1057   708   711    1
  1058   708  1001    1
  1059   709   714    1
  1060   709   710    1
  1061   710   711    1
  1062   711   712    1
  1063   712   715    1
  1064   712  1005    1
  1065   713   714    1
  1066   713   718    1
  1067   714   715    1
  1068   715   716    1
  1069   716   719    1
  1070   716  1009    1
  1071   717   718    1
  1072   717   722    1
  1073   718   719    1
  1074   719   720    1
  1075   720   723    1
  1076   720  1013    1
  1077   721   726    1
  1078   721   722    1
  1079   722   723    1
  1080   723   724    1
  1081   724   727    1
  1082   724  1017    1
  1083   725   730    1
  1084   725   726    1
  1085   726   727    1
  1086   727   728    1
  1087   728   731    1
  1088   728  1021    1
  1089   729   734    1
  1090   729   730    1
  1091   730   731    1
  1092   731   732    1
  1093   732   735    1
  1094   732  1025    1
  1095   733   734    1
  1096   733   738    1
  1097   734   735    1
  1098   735   736    1
  1099   736   739    1
  1100   736  1029    1
  1101   737   738    1
  1102   737   742    1
  1103   738   739    1
  1104   739   740    1
  1105   740   743    1
  1106   740  1033    1
  1107   741   746    1
  1108   741   742    1
  1109   742   743    1
  1110   743   744    1
  1111   744   747    1
  1112   744  1037    1
  1113   745   750    1
  1114   745   746    1
  1115   746   747    1
  1116   747   748    1
  1117   748   751    1
  1118   748  1041    1
  1119   749   754    1
  1120   749   750    1
  1121   750   751    1
  1122   751   752    1
  1123   752   755    1
  1124   752  1045    1
  1125   753   754    1
  1126   753   758    1
  1127   754   755    1
  1128   755   756    1
  1129   756   759    1
  1130   756  1049    1
  1131   757   758    1
  1132   757   762    1
  1133   758   759    1
  1134   759   760    1
  1135   760   763    1
  1136   760  1053    1
  1137   761   766    1
  1138   761   762    1
  1139   762   763    1
  1140   763   764    1
  1141   764   767    1
  1142   764  1057    1
  1143   765   766    1
  1144   765   770    1
  1145   766   767    1
  1146   767   768    1
  1147   768   771    1
  1148   768  1061    1
  1149   769   774    1
  1150   769   770    1
  1151   770   771    1
  1152   771   772    1
  1153   772   775    1
  1154   772  1065    1
  1155   773   774    1
  1156   773   778    1
  1157   774   775    1
  1158   775   776    1
  1159   776   779    1
  1160   776  1069    1
  1161   777   778    1
  1162   777   782    1
  1163   778   779    1
  1164   779   780    1
  1165   780   783    1
  1166   780  1073    1
  1167   781   786    1
  1168   781   782    1
  1169   782   783    1
  1170   783   784    1
  1171   784   787    1
  1172   784  1077    1
  1173   785   790    1
  1174   785   786    1
  1175   786   787    1
  1176   787   788    1
  1177   788   791    1
  1178   788  1081    1
  1179   789   794    1
  1180   789   790    1
  1181   790   791    1
  1182   791   792    1
  1183   792   795    1
  1184   792  1085    1
  1185   793   794    1
  1186   793   798    1
  1187   794   795    1
  1188   795   796    1
  1189   796   799    1
  1190   796  1089    1
  1191   797   802    1
  1192   797   798    1
  1193   798   799    1
  1194   799   800    1
  1195   800   803    1
  1196   800  1093    1
  1197   801   806    1
  1198   801   802    1
  1199   802   803    1
  1200   803   804    1
  1201   804   807    1
  1202   804  1097    1
  1203   805   810    1
  1204   805   806    1
  1205   806   807    1
  1206   807   808    1
  1207   808   811    1
  1208   808  1101    1
  1209   809   810    1
  1210   809   814    1
  1211   810   811    1
  1212   811   812    1
  1213   812   815    1
  1214   812  1105    1
  1215   813   814    1
  1216   813   818    1
  1217   814   815    1
  1218   815   816    1
  1219   816   819    1
  1220   816  1109    1
  1221   817   818    1
  1222   817   822    1
  1223   818   819    1
  1224   819   820    1
  1225   820   823    1
  1226   820  1113    1
  1227   821   826    1
  1228   821   822    1
  1229   822   823    1
  1230   823   824    1
  1231   824   827    1
  1232   824  1117    1
  1233   825   830    1
  1234   825   826    1
  1235   826   827    1
  1236   827   828    1
  1237   828   831    1
  1238   828  1121    1
  1239   829   830    1
  1240   829   834    1
  1241   830   831    1
  1242   831   832    1
  1243   832   835    1
  1244   832  1125    1
  1245   833   834    1
  1246   833   838    1
  1247   834   835    1
  1248   835   836    1
  1249   836   839    1
  1250   836  1129    1
  1251   837   842    1
  1252   837   838    1
  1253   838   839    1
  1254   839   840    1
  1255   840   843    1
  1256   840  1133    1
  1257   841   846    1
  1258   841   842    1
  1259   842   843    1
  1260   843   844    1
  1261   844   847    1
  1262   844  1137    1
  1263   845   846    1
  1264   845   850    1
  1265   846   847    1
  1266   847   848    1
  1267   848   851    1
  1268   848  1141    1
  1269   849   850    1
  1270   849   854    1
  1271   850   851    1
  1272   851   852    1
  1273   852   855    1
  1274   852  1145    1
  1275   853   854    1
  1276   853   858    1
  1277   854   855    1
  1278   855   856    1
  1279   856   859    1
  1280   856  1149    1
  1281   857   862    1
  1282   857   858    1
  1283   858   859    1
  1284   859   860    1
  1285   860   863    1
  1286   860  1153    1
  1287   861   866    1
  1288   861   862    1
  1289   862   863    1
  1290   863   864    1
  1291   864   867    1
  1292   864  1157    1
  1293   865   870    1
  1294   865   866    1
  1295   866   867    1
  1296   867   868    1
  1297   868   871    1
  1298   868  1161    1
  1299   869   870    1
  1300   869   874    1
  1301   870   871    1
  1302   871   872    1
  1303   872   875    1
  1304   872  1165    1
  1305   873   874    1
  1306   873   878    1
  1307   874   875    1
  1308   875   876    1
  1309   876   879    1
  1310   876  1169    1
  1311   877   882    1
  1312   877   878    1
  1313   878   879    1
  1314   879   880    1
  1315   880   883    1
  1316   880  1173    1
  1317   881   886    1
  1318   881   882    1
  1319   882   883    1
  1320   883   884    1
  1321   884   887    1
  1322   884  1177    1
  1323   885   886    1
  1324   886   887    1
  1325   887   888    1
  1326   888  1181    1
  1327   889   890    1
  1328   889   894    1
  1329   890   891    1
  1330   891   892    1
  1331   892   895    1
  1332   892  1185    1
  1333   893   894    1
  1334   893   898    1
  1335   894   895    1
  1336   895   896    1
  1337   896   899    1
  1338   896  1189    1
  1339   897   902    1
  1340   897   898    1
  1341   898   899    1
  1342   899   900    1
  1343   900   903    1
  1344   900  1193    1
  1345   901   906    1
  1346   901   902    1
  1347   902   903    1
  1348   903   904    1
  1349   904   907    1
  1350   904  1197    1
  1351   905   910    1
  1352   905   906    1
  1353   906   907    1
  1354   907   908    1
  1355   908   911    1
  1356   908  1201    1
  1357   909   910    1
  1358   909   914    1
  1359   910   911    1
  1360   911   912    1
  1361   912   915    1
  1362   912  1205    1
  1363   913   914    1
  1364   913   918    1
  1365   914   915    1
  1366   915   916    1
  1367   916   919    1
  1368   916  1209    1
  1369   917   922    1
  1370   917   918    1
  1371   918   919    1
  1372   919   920    1
  1373   920   923    1
  1374   920  1213    1
  1375   921   922    1
  1376   921   926    1
  1377   922   923    1
  1378   923   924    1
  1379   924   927    1
  1380   924  1217    1
  1381   925   930    1
  1382   925   926    1
  1383   926   927    1
  1384   927   928    1
  1385   928   931    1
  1386   928  1221    1
  1387   929   930    1
  1388   929   934    1
  1389   930   931    1
  1390   931   932    1
  1391   932   935    1
  1392   932  1225    1
  1393   933   934    1
  1394   933   938    1
  1395   934   935    1
  1396   935   936    1
  1397   936   939    1
  1398   936  1229    1
  1399   937   942    1
  1400   937   938    1
  1401   938   939    1
  1402   939   940    1
  1403   940   943    1
  1404   940  1233    1
  1405   941   946    1
  1406   941   942    1
  1407   942   943    1
  1408   943   944    1
  1409   944   947    1
  1410   944  1237    1
  1411   945   950    1
  1412   945   946    1
  1413   946   947    1
  1414   947   948    1
  1415   948   951    1
  1416   948  1241    1
  1417   949   950    1
  1418   949   954    1
  1419   950   951    1
  1420   951   952    1
  1421   952   955    1
  1422   952  1245    1
  1423   953   954    1
  1424   953   958    1
  1425   954   955    1
  1426   955   956    1
  1427   956   959    1
  1428   956  1249    1
  1429   957   962    1
  1430   957   958    1
  1431   958   959    1
  1432   959   960    1
  1433   960   963    1
  1434   960  1253    1
  1435   961   966    1
  1436   961   962    1
  1437   962   963    1
  1438   963   964    1
  1439   964   967    1
  1440   964  1257    1
  1441   965   970    1
  1442   965   966    1
  1443   966   967    1
  1444   967   968    1
  1445   968   971    1
  1446   968  1261    1
  1447   969   970    1
  1448   969   974    1
  1449   970   971    1
  1450   971   972    1
  1451   972   975    1
  1452   972  1265    1
  1453   973   974    1
  1454   973   978    1
  1455   974   975    1
  1456   975   976    1
  1457   976   979    1
  1458   976  1269    1
  1459   977   982    1
  1460   977   978    1
  1461   978   979    1
  1462   979   980    1
  1463   980   983    1
  1464   980  1273    1
  1465   981   986    1
  1466   981   982    1
  1467   982   983    1
  1468   983   984    1
  1469   984   987    1
  1470   984  1277    1
  1471   985   990    1
  1472   985   986    1
  1473   986   987    1
  1474   987   988    1
  1475   988   991    1
  1476   988  1281    1
  1477   989   990    1
  1478   989   994    1
  1479   990   991    1
  1480   991   992    1
  1481   992   995    1
  1482   992  1285    1
  1483   993   994    1
  1484   993   998    1
  1485   994   995    1
  1486   995   996    1
  1487   996   999    1
  1488   996  1289    1
  1489   997  1002    1
  1490   997   998    1
  1491   998   999    1
  1492   999  1000    1
  1493  1000  1003    1
  1494  1000  1293    1
  1495  1001  1002    1
  1496  1001  1006    1
  1497  1002  1003    1
  1498  1003  1004    1
  1499  1004  1007    1
  1500  1004  1297    1
  1501  1005  1010    1
  1502  1005  1006    1
  1503  1006  1007    1
  1504  1007  1008    1
  1505  1008  1011    1
  1506  1008  1301    1
  1507  1009  1010    1
  1508  1009  1014    1
  1509  1010  1011    1
  1510  1011  1012    1
  1511  1012  1015    1
  1512  1012  1305    1
  1513  1013  1014    1
  1514  1013  1018    1
  1515  1014  1015    1
  1516  1015  1016    1
  1517  1016  1019    1
  1518  1016  1309    1
  1519  1017  1022    1
  1520  1017  1018    1
  1521  1018  1019    1
  1522  1019  1020    1
  1523  1020  1023    1
  1524  1020  1313    1
  1525  1021  1026    1
  1526  1021  1022    1
  1527  1022  1023    1
  1528  1023  1024    1
  1529  1024  1027    1
  1530  1024  1317    1
  1531  1025  1030    1
  1532  1025  1026    1
  1533  1026  1027    1
  1534  1027  1028    1
  1535  1028  1031    1
  1536  1028  1321    1
  1537  1029  1030    1
  1538  1029  1034    1
  1539  1030  1031    1
  1540  1031  1032    1
  1541  1032  1035    1
  1542  1032  1325    1
  1543  1033  1034    1
  1544  1033  1038    1
  1545  1034  1035    1
  1546  1035  1036    1
  1547  1036  1039    1
  1548  1036  1329    1
  1549  1037  1042    1
  1550  1037  1038    1
  1551  1038  1039    1
  1552  1039  1040    1
  1553  1040  1043    1
  1554  1040  1333    1
  1555  1041  1046    1
  1556  1041  1042    1
  1557  1042  1043    1
  1558  1043  1044    1
  1559  1044  1047    1
  1560  1044  1337    1
  1561  1045  1050    1
  1562  1045  1046    1
  1563  1046  1047    1
  1564  1047  1048    1
  1565  1048  1051    1
  1566  1048  1341    1
  1567  1049  1050    1
  1568  1049  1054    1
  1569  1050  1051    1
  1570  1051  1052    1
  1571  1052  1055    1
  1572  1052  1345    1
  1573  1053  1054    1
  1574  1053  1058    1
  1575  1054  1055    1
  1576  1055  1056    1
  1577  1056  1059    1
  1578  1056  1349    1
  1579  1057  1062    1
  1580  1057  1058    1
  1581  1058  1059    1
  1582  1059  1060    1
  1583  1060  1063    1
  1584  1060  1353    1
  1585  1061  1066    1
  1586  1061  1062    1
  1587  1062  1063    1
  1588  1063  1064    1
  1589  1064  1067    1
  1590  1064  1357    1
  1591  1065  1070    1
  1592  1065  1066    1
  1593  1066  1067    1
  1594  1067  1068    1
  1595  1068  1071    1
  1596  1068  1361    1
  1597  1069  1070    1
  1598  1069  1074    1
  1599  1070  1071    1
  1600  1071  1072    1
  1601  1072  1075    1
  1602  1072  1365    1
  1603  1073  1074    1
  1604  1073  1078    1
  1605  1074  1075    1
  1606  1075  1076    1
  1607  1076  1079    1
  1608  1076  1369    1
  1609  1077  1082    1
  1610  1077  1078    1
  1611  1078  1079    1
  1612  1079  1080    1
  1613  1080  1083    1
  1614  1080  1373    1
  1615  1081  1082    1
  1616  1081  1086    1
  1617  1082  1083    1
  1618  1083  1084    1
  1619  1084  1087    1
  1620  1084  1377    1
  1621  1085  1090    1
  1622  1085  1086    1
  1623  1086  1087    1
  1624  1087  1088    1
  1625  1088  1091    1
  1626  1088  1381    1
  1627  1089  1090    1
  1628  1089  1094    1
  1629  1090  1091    1
  1630  1091  1092    1
  1631  1092  1095    1
  1632  1092  1385    1
  1633  1093  1098    1
  1634  1093  1094    1
  1635  1094  1095    1
  1636  1095  1096    1
  1637  1096  1099    1
  1638  1096  1389    1
  1639  1097  1102    1
  1640  1097  1098    1
  1641  1098  1099    1
  1642  1099  1100    1
  1643  1100  1103    1
  1644  1100  1393    1
  1645  1101  1106    1
  1646  1101  1102    1
  1647  1102  1103    1
  1648  1103  1104    1
  1649  1104  1107    1
  1650  1104  1397    1
  1651  1105  1106    1
  1652  1105  1110    1
  1653  1106  1107    1
  1654  1107  1108    1
  1655  1108  1111    1
  1656  1108  1401    1
  1657  1109  1110    1
  1658  1109  1114    1
  1659  1110  1111    1
  1660  1111  1112    1
  1661  1112  1115    1
  1662  1112  1405    1
  1663  1113  1118    1
  1664  1113  1114    1
  1665  1114  1115    1
  1666  1115  1116    1
  1667  1116  1119    1
  1668  1116  1409    1
  1669  1117  1122    1
  1670  1117  1118    1
  1671  1118  1119    1
  1672  1119  1120    1
  1673  1120  1123    1
  1674  1120  1413    1
  1675  1121  1126    1
  1676  1121  1122    1
  1677  1122  1123    1
  1678  1123  1124    1
  1679  1124  1127    1
  1680  1124  1417    1
  1681  1125  1126    1
  1682  1125  1130    1
  1683  1126  1127    1
  1684  1127  1128    1
  1685  1128  1131    1
  1686  1128  1421    1
  1687  1129  1130    1
  1688  1129  1134    1
  1689  1130  1131    1
  1690  1131  1132    1
  1691  1132  1135    1
  1692  1132  1425    1
  1693  1133  1134    1
  1694  1133  1138    1
  1695  1134  1135    1
  1696  1135  1136    1
  1697  1136  1139    1
  1698  1136  1429    1
  1699  1137  1142    1
  1700  1137  1138    1
  1701  1138  1139    1
  1702  1139  1140    1
  1703  1140  1143    1
  1704  1140  1433    1
  1705  1141  1146    1
  1706  1141  1142    1
  1707  1142  1143    1
  1708  1143  1144    1
  1709  1144  1147    1
  1710  1144  1437    1
  1711  1145  1146    1
  1712  1145  1150    1
  1713  1146  1147    1
  1714  1147  1148    1
  1715  1148  1151    1
  1716  1148  1441    1
  1717  1149  1150    1
  1718  1149  1154    1
  1719  1150  1151    1
  1720  1151  1152    1
  1721  1152  1155    1
  1722  1152  1445    1
  1723  1153  1158    1
  1724  1153  1154    1
  1725  1154  1155    1
  1726  1155  1156    1
  1727  1156  1159    1
  1728  1156  1449    1
  1729  1157  1162    1
  1730  1157  1158    1
  1731  1158  1159    1
  1732  1159  1160    1
  1733  1160  1163    1
  1734  1160  1453    1
  1735  1161  1162    1
  1736  1161  1166    1
  1737  1162  1163    1
  1738  1163  1164    1
  1739  1164  1167    1
  1740  1164  1457    1
  1741  1165  1166    1
  1742  1165  1170    1
  1743  1166  1167    1
  1744  1167  1168    1
  1745  1168  1171    1
  1746  1168  1461    1
  1747  1169  1170    1
  1748  1169  1174    1
  1749  1170  1171    1
  1750  1171  1172    1
  1751  1172  1175    1
  1752  1172  1465    1
  1753  1173  1178    1
  1754  1173  1174    1
  1755  1174  1175    1
  1756  1175  1176    1
  1757  1176  1179    1
  1758  1176  1469    1
  1759  1177  1182    1
  1760  1177  1178    1
  1761  1178  1179    1
  1762  1179  1180    1
  1763  1180  1183    1
  1764  1180  1473    1
  1765  1181  1182    1
  1766  1182  1183    1
  1767  1183  1184    1
  1768  1184  1477    1
  1769  1185  1186    1
  1770  1185  1190    1
  1771  1186  1187    1
  1772  1187  1188    1
  1773  1188  1191    1
  1774  1188  1481    1
  1775  1189  1190    1
  1776  1189  1194    1
  1777  1190  1191    1
  1778  1191  1192    1
  1779  1192  1195    1
  1780  1192  1485    1
  1781  1193  1198    1
  1782  1193  1194    1
  1783  1194  1195    1
  1784  1195  1196    1
  1785  1196  1199    1
  1786  1196  1489    1
  1787  1197  1202    1
  1788  1197  1198    1
  1789  1198  1199    1
  1790  1199  1200    1
  1791  1200  1203    1
  1792  1200  1493    1
  1793  1201  1206    1
  1794  1201  1202    1
  1795  1202  1203    1
  1796  1203  1204    1
  1797  1204  1207    1
  1798  1204  1497    1
  1799  1205  1206    1
  1800  1205  1210    1
  1801  1206  1207    1
  1802  1207  1208    1
  1803  1208  1211    1
  1804  1208  1501    1
  1805  1209  1210    1
  1806  1209  1214    1
  1807  1210  1211    1
  1808  1211  1212    1
  1809  1212  1215    1
  1810  1212  1505    1
  1811  1213  1218    1
  1812  1213  1214    1
  1813  1214  1215    1
  1814  1215  1216    1
  1815  1216  1219    1
  1816  1216  1509    1
  1817  1217  1222    1
  1818  1217  1218    1
  1819  1218  1219    1
  1820  1219  1220    1
  1821  1220  1223    1
  1822  1220  1513    1
  1823  1221  1226    1
  1824  1221  1222    1
  1825  1222  1223    1
  1826  1223  1224    1
  1827  1224  1227    1
  1828  1224  1517    1
  1829  1225  1226    1
  1830  1225  1230    1
  1831  1226  1227    1
  1832  1227  1228    1
  1833  1228  1231    1
  1834  1228  1521    1
  1835  1229  1230    1
  1836  1229  1234    1
  1837  1230  1231    1
  1838  1231  1232    1
  1839  1232  1235    1
  1840  1232  1525    1
  1841  1233  1238    1
  1842  1233  1234    1
  1843  1234  1235    1
  1844  1235  1236    1
  1845  1236  1239    1
  1846  1236  1529    1
  1847  1237  1238    1
  1848  1237  1242    1
  1849  1238  1239    1
  1850  1239  1240    1
  1851  1240  1243    1
  1852  1240  1533    1
  1853  1241  1246    1
  1854  1241  1242    1
  1855  1242  1243    1
  1856  1243  1244    1
  1857  1244  1247    1
  1858  1244  1537    1
  1859  1245  1246    1
  1860  1245  1250    1
  1861  1246  1247    1
  1862  1247  1248    1
  1863  1248  1251    1
  1864  1248  1541    1
  1865  1249  1250    1
  1866  1249  1254    1
  1867  1250  1251    1
  1868  1251  1252    1
  1869  1252  1255    1
  1870  1252  1545    1
  1871  1253  1258    1
  1872  1253  1254    1
  1873  1254  1255    1
  1874  1255  1256    1
  1875  1256  1259    1
  1876  1256  1549    1
  1877  1257  1262    1
  1878  1257  1258    1
  1879  1258  1259    1
  1880  1259  1260    1
  1881  1260  1263    1
  1882  1260  1553    1
  1883  1261  1266    1
  1884  1261  1262    1
  1885  1262  1263    1
  1886  1263  1264    1
  1887  1264  1267    1
  1888  1264  1557    1
  1889  1265  1266    1
  1890  1265  1270    1
  1891  1266  1267    1
  1892  1267  1268    1
  1893  1268  1271    1
  1894  1268  1561    1
  1895  1269  1270    1
  1896  1269  1274    1
  1897  1270  1271    1
  1898  1271  1272    1
  1899  1272  1275    1
  1900  1272  1565    1
  1901  1273  1278    1
  1902  1273  1274    1
  1903  1274  1275    1
  1904  1275  1276    1
  1905  1276  1279    1
  1906  1276  1569    1
  1907  1277  1282    1
  1908  1277  1278    1
  1909  1278  1279    1
  1910  1279  1280    1
  1911  1280  1283    1
  1912  1280  1573    1
  1913  1281  1286    1
  1914  1281  1282    1
  1915  1282  1283    1
  1916  1283  1284    1
  1917  1284  1287    1
  1918  1284  1577    1
  1919  1285  1286    1
  1920  1285  1290    1
  1921  1286  1287    1
  1922  1287  1288    1
  1923  1288  1291    1
  1924  1288  1581    1
  1925  1289  1290    1
  1926  1289  1294    1
  1927  1290  1291    1
  1928  1291  1292    1
  1929  1292  1295    1
  1930  1292  1585    1
  1931  1293  1298    1
  1932  1293  1294    1
  1933  1294  1295    1
  1934  1295  1296    1
  1935  1296  1299    1
  1936  1296  1589    1
  1937  1297  1302    1
  1938  1297  1298    1
  1939  1298  1299    1
  1940  1299  1300    1
  1941  1300  1303    1
  1942  1300  1593    1
  1943  1301  1306    1
  1944  1301  1302    1
  1945  1302  1303    1
  1946  1303  1304    1
  1947  1304  1307    1
  1948  1304  1597    1
  1949  1305  1306    1
  1950  1305  1310    1
  1951  1306  1307    1
  1952  1307  1308    1
  1953  1308  1311    1
  1954  1308  1601    1
  1955  1309  1310    1
  1956  1309  1314    1
  1957  1310  1311    1
  1958  1311  1312    1
  1959  1312  1315    1
  1960  1312  1605    1
  1961  1313  1318    1
  1962  1313  1314    1
  1963  1314  1315    1
  1964  1315  1316    1
  1965  1316  1319    1
  1966  1316  1609    1
  1967  1317  1318    1
  1968  1317  1322    1
  1969  1318  1319    1
  1970  1319  1320    1
  1971  1320  1323    1
  1972  1320  1613    1
  1973  1321  1326    1
  1974  1321  1322    1
  1975  1322  1323    1
  1976  1323  1324    1
  1977  1324  1327    1
  1978  1324  1617    1
  1979  1325  1326    1
  1980  1325  1330    1
  1981  1326  1327    1
  1982  1327  1328    1
  1983  1328  1331    1
  1984  1328  1621    1
  1985  1329  1330    1
  1986  1329  1334    1
  1987  1330  1331    1
  1988  1331  1332    1
  1989  1332  1335    1
  1990  1332  1625    1
  1991  1333  1338    1
  1992  1333  1334    1
  1993  1334  1335    1
  1994  1335  1336    1
  1995  1336  1339    1
  1996  1336  1629    1
  1997  1337  1342    1
  1998  1337  1338    1
  1999  1338  1339    1
  2000  1339  1340    1
  2001  1340  1343    1
  2002  1340  1633    1
  2003  1341  1346    1
  2004  1341  1342    1
  2005  1342  1343    1
  2006  1343  1344    1
  2007  1344  1347    1
  2008  1344  1637    1
  2009  1345  1346    1
  2010  1345  1350    1
  2011  1346  1347    1
  2012  1347  1348    1
  2013  1348  1351    1
  2014  1348  1641    1
  2015  1349  1350    1
  2016  1349  1354    1
  2017  1350  1351    1
  2018  1351  1352    1
  2019  1352  1355    1
  2020  1352  1645    1
  2021  1353  1358    1
  2022  1353  1354    1
  2023  1354  1355    1
  2024  1355  1356    1
  2025  1356  1359    1
  2026  1356  1649    1
  2027  1357  1362    1
  2028  1357  1358    1
  2029  1358  1359    1
  2030  1359  1360    1
  2031  1360  1363    1
  2032  1360  1653    1
  2033  1361  1366    1
  2034  1361  1362    1
  2035  1362  1363    1
  2036  1363  1364    1
  2037  1364  1367    1
  2038  1364  1657    1
  2039  1365  1366    1
  2040  1365  1370    1
  2041  1366  1367    1
  2042  1367  1368    1
  2043  1368  1371    1
  2044  1368  1661    1
  2045  1369  1370    1
  2046  1369  1374    1
  2047  1370  1371    1
  2048  1371  1372    1
  2049  1372  1375    1
  2050  1372  1665    1
  2051  1373  1378    1
  2052  1373  1374    1
  2053  1374  1375    1
  2054  1375  1376    1
  2055  1376  1379    1
  2056  1376  1669    1
  2057  1377  1382    1
  2058  1377  1378    1
  2059  1378  1379    1
  2060  1379  1380    1
  2061  1380  1383    1
  2062  1380  1673    1
  2063  1381  1386    1
  2064  1381  1382    1
  2065  1382  1383    1
  2066  1383  1384    1
  2067  1384  1387    1
  2068  1384  1677    1
  2069  1385  1386    1
  2070  1385  1390    1
  2071  1386  1387    1
  2072  1387  1388    1
  2073  1388  1391    1
  2074  1388  1681    1
  2075  1389  1394    1
  2076  1389  1390    1
  2077  1390  1391    1
  2078  1391  1392    1
  2079  1392  1395    1
  2080  1392  1685    1
  2081  1393  1398    1
  2082  1393  1394    1
  2083  1394  1395    1
  2084  1395  1396    1
  2085  1396  1399    1
  2086  1396  1689    1
  2087  1397  1398    1
  2088  1397  1402    1
  2089  1398  1399    1
  2090  1399  1400    1
  2091  1400  1403    1
  2092  1400  1693    1
  2093  1401  1402    1
  2094  1401  1406    1
  2095  1402  1403    1
  2096  1403  1404    1
  2097  1404  1407    1
  2098  1404  1697    1
  2099  1405  1406    1
  2100  1405  1410    1
  2101  1406  1407    1
  2102  1407  1408    1
  2103  1408  1411    1
  2104  1408  1701    1
  2105  1409  1414    1
  2106  1409  1410    1
  2107  1410  1411    1
  2108  1411  1412    1
  2109  1412  1415    1
  2110  1412  1705    1
  2111  1413  1418    1
  2112  1413  1414    1
  2113  1414  1415    1
  2114  1415  1416    1
  2115  1416  1419    1
  2116  1416  1709    1
  2117  1417  1422    1
  2118  1417  1418    1
  2119  1418  1419    1
  2120  1419  1420    1
  2121  1420  1423    1
  2122  1420  1713    1
  2123  1421  1422    1
  2124  1421  1426    1
  2125  1422  1423    1
  2126  1423  1424    1
  2127  1424  1427    1
  2128  1424  1717    1
  2129  1425  1426    1
  2130  1425  1430    1
  2131  1426  1427    1
  2132  1427  1428    1
  2133  1428  1431    1
  2134  1428  1721    1
  2135  1429  1434    1
  2136  1429  1430    1
  2137  1430  1431    1
  2138  1431  1432    1
  2139  1432  1435    1
  2140  1432  1725    1
  2141  1433  1438    1
  2142  1433  1434    1
  2143  1434  1435    1
  2144  1435  1436    1
  2145  1436  1439    1
  2146  1436  1729    1
  2147  1437  1442    1
  2148  1437  1438    1
  2149  1438  1439    1
  2150  1439  1440    1
  2151  1440  1443    1
  2152  1440  1733    1
  2153  1441  1442    1
  2154  1441  1446    1
  2155  1442  1443    1
  2156  1443  1444    1
  2157  1444  1447    1
  2158  1444  1737    1
  2159  1445  1446    1
  2160  1445  1450    1
  2161  1446  1447    1
  2162  1447  1448    1
  2163  1448  1451    1
  2164  1448  1741    1
  2165  1449  1450    1
  2166  1449  1454    1
  2167  1450  1451    1
  2168  1451  1452    1
  2169  1452  1455    1
  2170  1452  1745    1
  2171  1453  1458    1
  2172  1453  1454    1
  2173  1454  1455    1
  2174  1455  1456    1
  2175  1456  1459    1
  2176  1456  1749    1
  2177  1457  1462    1
  2178  1457  1458    1
  2179  1458  1459    1
  2180  1459  1460    1
  2181  1460  1463    1
  2182  1460  1753    1
  2183  1461  1462    1
  2184  1461  1466    1
  2185  1462  1463    1
  2186  1463  1464    1
  2187  1464  1467    1
  2188  1464  1757    1
  2189  1465  1466    1
  2190  1465  1470    1
  2191  1466  1467    1
  2192  1467  1468    1
  2193  1468  1471    1
  2194  1468  1761    1
  2195  1469  1474    1
  2196  1469  1470    1
  2197  1470  1471    1
  2198  1471  1472    1
  2199  1472  1475    1
  2200  1472  1765    1
  2201  1473  1478    1
  2202  1473  1474    1
  2203  1474  1475    1
  2204  1475  1476    1
  2205  1476  1479    1
  2206  1476  1769    1
  2207  1477  1478    1
  2208  1478  1479    1
  2209  1479  1480    1
  2210  1480  1773    1
  2211  1481  1482    1
  2212  1481  1486    1
  2213  1482  1483    1
  2214  1483  1484    1
  2215  1484  1487    1
  2216  1484  1777    1
  2217  1485  1486    1
  2218  1485  1490    1
  2219  1486  1487    1
  2220  1487  1488    1
  2221  1488  1491    1
  2222  1488  1781    1
  2223  1489  1494    1
  2224  1489  1490    1
  2225  1490  1491    1
  2226  1491  1492    1
  2227  1492  1495    1
  2228  1492  1785    1
  2229  1493  1498    1
  2230  1493  1494    1
  2231  1494  1495    1
  2232  1495  1496    1
  2233  1496  1499    1
  2234  1496  1789    1
  2235  1497  1502    1
  2236  1497  1498    1
  2237  1498  1499    1
  2238  1499  1500    1
  2239  1500  1503    1
  2240  1500  1793    1
  2241  1501  1502    1
  2242  1501  1506    1
  2243  1502  1503    1
  2244  1503  1504    1
  2245  1504  1507    1
  2246  1504  1797    1
  2247  1505  1506    1
  2248  1505  1510    1
  2249  1506  1507    1
  2250  1507  1508    1
  2251  1508  1511    1
  2252  1508  1801    1
  2253  1509  1514    1
  2254  1509  1510    1
  2255  1510  1511    1
  2256  1511  1512    1
  2257  1512  1515    1
  2258  1512  1805    1
  2259  1513  1518    1
  2260  1513  1514    1
  2261  1514  1515    1
  2262  1515  1516    1
  2263  1516  1519    1
  2264  1516  1809    1
  2265  1517  1522    1
  2266  1517  1518    1
  2267  1518  1519    1
  2268  1519  1520    1
  2269  1520  1523    1
  2270  1520  1813    1
  2271  1521  1522    1
  2272  1521  1526    1
  2273  1522  1523    1
  2274  1523  1524    1
  2275  1524  1527    1
  2276  1524  1817    1
  2277  1525  1526    1
  2278  1525  1530    1
  2279  1526  1527    1
  2280  1527  1528    1
  2281  1528  1531    1
  2282  1528  1821    1
  2283  1529  1534    1
  2284  1529  1530    1
  2285  1530  1531    1
  2286  1531  1532    1
  2287  1532  1535    1
  2288  1532  1825    1
  2289  1533  1538    1
  2290  1533  1534    1
  2291  1534  1535    1
  2292  1535  1536    1
  2293  1536  1539    1
  2294  1536  1829    1
  2295  1537  1542    1
  2296  1537  1538    1
  2297  1538  1539    1
  2298  1539  1540    1
  2299  1540  1543    1
  2300  1540  1833    1
  2301  1541  1542    1
  2302  1541  1546    1
  2303  1542  1543    1
  2304  1543  1544    1
  2305  1544  1547    1
  2306  1544  1837    1
  2307  1545  1546    1
  2308  1545  1550    1
  2309  1546  1547    1
  2310  1547  1548    1
  2311  1548  1551    1
  2312  1548  1841    1
  2313  1549  1554    1
  2314  1549  1550    1
  2315  1550  1551    1
  2316  1551  1552    1
  2317  1552  1555    1
  2318  1552  1845    1
  2319  1553  1554    1
  2320  1553  1558    1
  2321  1554  1555    1
  2322  1555  1556    1
  2323  1556  1559    1
  2324  1556  1849    1
  2325  1557  1562    1
  2326  1557  1558    1
  2327  1558  1559    1
  2328  1559  1560    1
  2329  1560  1563    1
  2330  1560  1853    1
  2331  1561  1562    1
  2332  1561  1566    1
  2333  1562  1563    1
  2334  1563  1564    1
  2335  1564  1567    1
  2336  1564  1857    1
  2337  1565  1566    1
  2338  1565  1570    1
  2339  1566  1567    1
  2340  1567  1568    1
  2341  1568  1571    1
  2342  1568  1861    1
  2343  1569  1574    1
  2344  1569  1570    1
  2345  1570  1571    1
  2346  1571  1572    1
  2347  1572  1575    1
  2348  1572  1865    1
  2349  1573  1578    1
  2350  1573  1574    1
  2351  1574  1575    1
  2352  1575  1576    1
  2353  1576  1579    1
  2354  1576  1869    1
  2355  1577  1582    1
  2356  1577  1578    1
  2357  1578  1579    1
  2358  1579  1580    1
  2359  1580  1583    1
  2360  1580  1873    1
  2361  1581  1582    1
  2362  1581  1586    1
  2363  1582  1583    1
  2364  1583  1584    1
  2365  1584  1587    1
  2366  1584  1877    1
  2367  1585  1586    1
  2368  1585  1590    1
  2369  1586  1587    1
  2370  1587  1588    1
  2371  1588  1591    1
  2372  1588  1881    1
  2373  1589  1594    1
  2374  1589  1590    1
  2375  1590  1591    1
  2376  1591  1592    1
  2377  1592  1595    1
  2378  1592  1885    1
  2379  1593  1598    1
  2380  1593  1594    1
  2381  1594  1595    1
  2382  1595  1596    1
  2383  1596  1599    1
  2384  1596  1889    1
  2385  1597  1602    1
  2386  1597  1598    1
  2387  1598  1599    1
  2388  1599  1600    1
  2389  1600  1603    1
  2390  1600  1893    1
  2391  1601  1602    1
  2392  1601  1606    1
  2393  1602  1603    1
  2394  1603  1604    1
  2395  1604  1607    1
  2396  1604  1897    1
  2397  1605  1606    1
  2398  1605  1610    1
  2399  1606  1607    1
  2400  1607  1608    1
  2401  1608  1611    1
  2402  1608  1901    1
  2403  1609  1614    1
  2404  1609  1610    1
  2405  1610  1611    1
  2406  1611  1612    1
  2407  1612  1615    1
  2408  1612  1905    1
  2409  1613  1618    1
  2410  1613  1614    1
  2411  1614  1615    1
  2412  1615  1616    1
  2413  1616  1619    1
  2414  1616  1909    1
  2415  1617  1622    1
  2416  1617  1618    1
  2417  1618  1619    1
  2418  1619  1620    1
  2419  1620  1623    1
  2420  1620  1913    1
  2421  1621  1622    1
  2422  1621  1626    1
  2423  1622  1623    1
  2424  1623  1624    1
  2425  1624  1627    1
  2426  1624  1917    1
  2427  1625  1626    1
  2428  1625  1630    1
  2429  1626  1627    1
  2430  1627  1628    1
  2431  1628  1631    1
  2432  1628  1921    1
  2433  1629  1634    1
  2434  1629  1630    1
  2435  1630  1631    1
  2436  1631  1632    1
  2437  1632  1635    1
  2438  1632  1925    1
  2439  1633  1634    1
  2440  1633  1638    1
  2441  1634  1635    1
  2442  1635  1636    1
  2443  1636  1639    1
  2444  1636  1929    1
  2445  1637  1642    1
  2446  1637  1638    1
  2447  1638  1639    1
  2448  1639  1640    1
  2449  1640  1643    1
  2450  1640  1933    1
  2451  1641  1642    1
  2452  1641  1646    1
  2453  1642  1643    1
  2454  1643  1644    1
  2455  1644  1647    1
  2456  1644  1937    1
  2457  1645  1646    1
  2458  1645  1650    1
  2459  1646  1647    1
  2460  1647  1648    1
  2461  1648  1651    1
  2462  1648  1941    1
  2463  1649  1654    1
  2464  1649  1650    1
  2465  1650  1651    1
  2466  1651  1652    1
  2467  1652  1655    1
  2468  1652  1945    1
  2469  1653  1658    1
  2470  1653  1654    1
  2471  1654  1655    1
  2472  1655  1656    1
  2473  1656  1659    1
  2474  1656  1949    1
  2475  1657  1662    1
  2476  1657  1658    1
  2477  1658  1659    1
  2478  1659  1660    1
  2479  1660  1663    1
  2480  1660  1953    1
  2481  1661  1662    1
  2482  1661  1666    1
  2483  1662  1663    1
  2484  1663  1664    1
  2485  1664  1667    1
  2486  1664  1957    1
  2487  1665  1666    1
  2488  1665  1670    1
  2489  1666  1667    1
  2490  1667  1668    1
  2491  1668  1671    1
  2492  1668  1961    1
  2493  1669  1674    1
  2494  1669  1670    1
  2495  1670  1671    1
  2496  1671  1672    1
  2497  1672  1675    1
  2498  1672  1965    1
  2499  1673  1678    1
  2500  1673  1674    1
  2501  1674  1675    1
  2502  1675  1676    1
  2503  1676  1679    1
  2504  1676  1969    1
  2505  1677  1682    1
  2506  1677  1678    1
  2507  1678  1679    1
  2508  1679  1680    1
  2509  1680  1683    1
  2510  1680  1973    1
  2511  1681  1682    1
  2512  1681  1686    1
  2513  1682  1683    1
  2514  1683  1684    1
  2515  1684  1687    1
  2516  1684  1977    1
  2517  1685  1686    1
  2518  1685  1690    1
  2519  1686  1687    1
  2520  1687  1688    1
  2521  1688  1691    1
  2522  1688  1981    1
  2523  1689  1694    1
  2524  1689  1690    1
  2525  1690  1691    1
  2526  1691  1692    1
  2527  1692  1695    1
  2528  1692  1985    1
  2529  1693  1698    1
  2530  1693  1694    1
  2531  1694  1695    1
  2532  1695  1696    1
  2533  1696  1699    1
  2534  1696  1989    1
  2535  1697  1698    1
  2536  1697  1702    1
  2537  1698  1699    1
  2538  1699  1700    1
  2539  1700  1703    1
  2540  1700  1993    1
  2541  1701  1702    1
  2542  1701  1706    1
  2543  1702  1703    1
  2544  1703  1704    1
  2545  1704  1707    1
  2546  1704  1997    1
  2547  1705  1710    1
  2548  1705  1706    1
  2549  1706  1707    1
  2550  1707  1708    1
  2551  1708  1711    1
  2552  1708  2001    1
  2553  1709  1714    1
  2554  1709  1710    1
  2555  1710  1711    1
  2556  1711  1712    1
  2557  1712  1715    1
  2558  1712  2005    1
  2559  1713  1714    1
  2560  1713  1718    1
  2561  1714  1715    1
  2562  1715  1716    1
  2563  1716  1719    1
  2564  1716  2009    1
  2565  1717  1718    1
  2566  1717  1722    1
  2567  1718  1719    1
  2568  1719  1720    1
  2569  1720  1723    1
  2570  1720  2013    1
  2571  1721  1722    1
  2572  1721  1726    1
  2573  1722  1723    1
  2574  1723  1724    1
  2575  1724  1727    1
  2576  1724  2017    1
  2577  1725  1730    1
  2578  1725  1726    1
  2579  1726  1727    1
  2580  1727  1728    1
  2581  1728  1731    1
  2582  1728  2021    1
  2583  1729  1734    1
  2584  1729  1730    1
  2585  1730  1731    1
  2586  1731  1732    1
  2587  1732  1735    1
  2588  1732  2025    1
  2589  1733  1738    1
  2590  1733  1734    1
  2591  1734  1735    1
  2592  1735  1736    1
  2593  1736  1739    1
  2594  1736  2029    1
  2595  1737  1738    1
  2596  1737  1742    1
  2597  1738  1739    1
  2598  1739  1740    1
  2599  1740  1743    1
  2600  1740  2033    1
  2601  1741  1742    1
  2602  1741  1746    1
  2603  1742  1743    1
  2604  1743  1744    1
  2605  1744  1747    1
  2606  1744  2037    1
  2607  1745  1750    1
  2608  1745  1746    1
  2609  1746  1747    1
  2610  1747  1748    1
  2611  1748  1751    1
  2612  1748  2041    1
  2613  1749  1754    1
  2614  1749  1750    1
  2615  1750  1751    1
  2616  1751  1752    1
  2617  1752  1755    1
  2618  1752  2045    1
  2619  1753  1758    1
  2620  1753  1754    1
  2621  1754  1755    1
  2622  1755  1756    1
  2623  1756  1759    1
  2624  1756  2049    1
  2625  1757  1758    1
  2626  1757  1762    1
  2627  1758  1759    1
  2628  1759  1760    1
  2629  1760  1763    1
  2630  1760  2053    1
  2631  1761  1762    1
  2632  1761  1766    1
  2633  1762  1763    1
  2634  1763  1764    1
  2635  1764  1767    1
  2636  1764  2057    1
  2637  1765  1766    1
  2638  1765  1770    1
  2639  1766  1767    1
  2640  1767  1768    1
  2641  1768  1771    1
  2642  1768  2060    1
  2643  1769  1774    1
  2644  1769  1770    1
  2645  1770  1771    1
  2646  1771  1772    1
  2647  1772  1775    1
  2648  1772  2064    1
  2649  1773  1774    1
  2650  1774  1775    1
  2651  1775  1776    1
  2652  1776  2068    1
  2653  1777  1778    1
  2654  1777  1782    1
  2655  1778  1779    1
  2656  1779  1780    1
  2657  1780  1783    1
  2658  1780  2072    1
  2659  1781  1782    1
  2660  1781  1786    1
  2661  1782  1783    1
  2662  1783  1784    1
  2663  1784  1787    1
  2664  1784  2076    1
  2665  1785  1790    1
  2666  1785  1786    1
  2667  1786  1787    1
  2668  1787  1788    1
  2669  1788  1791    1
  2670  1788  2080    1
  2671  1789  1790    1
  2672  1789  1794    1
  2673  1790  1791    1
  2674  1791  1792    1
  2675  1792  1795    1
  2676  1792  2084    1
  2677  1793  1798    1
  2678  1793  1794    1
  2679  1794  1795    1
  2680  1795  1796    1
  2681  1796  1799    1
  2682  1796  2088    1
  2683  1797  1798    1
  2684  1797  1802    1
  2685  1798  1799    1
  2686  1799  1800    1
  2687  1800  1803    1
  2688  1800  2092    1
  2689  1801  1802    1
  2690  1801  1806    1
  2691  1802  1803    1
  2692  1803  1804    1
  2693  1804  1807    1
  2694  1804  2096    1
  2695  1805  1810    1
  2696  1805  1806    1
  2697  1806  1807    1
  2698  1807  1808    1
  2699  1808  1811    1
  2700  1808  2100    1
  2701  1809  1814    1
  2702  1809  1810    1
  2703  1810  1811    1
  2704  1811  1812    1
  2705  1812  1815    1
  2706  1812  2104    1
  2707  1813  1818    1
  2708  1813  1814    1
  2709  1814  1815    1
  2710  1815  1816    1
  2711  1816  1819    1
  2712  1816  2108    1
  2713  1817  1818    1
  2714  1817  1822    1
  2715  1818  1819    1
  2716  1819  1820    1
  2717  1820  1823    1
  2718  1820  2112    1
  2719  1821  1822    1
  2720  1821  1826    1
  2721  1822  1823    1
  2722  1823  1824    1
  2723  1824  1827    1
  2724  1824  2116    1
  2725  1825  1830    1
  2726  1825  1826    1
  2727  1826  1827    1
  2728  1827  1828    1
  2729  1828  1831    1
  2730  1828  2120    1
  2731  1829  1834    1
  2732  1829  1830    1
  2733  1830  1831    1
  2734  1831  1832    1
  2735  1832  1835    1
  2736  1832  2124    1
  2737  1833  1838    1
  2738  1833  1834    1
  2739  1834  1835    1
  2740  1835  1836    1
  2741  1836  1839    1
  2742  1836  2128    1
  2743  1837  1838    1
  2744  1837  1842    1
  2745  1838  1839    1
  2746  1839  1840    1
  2747  1840  1843    1
  2748  1840  2132    1
  2749  1841  1842    1
  2750  1841  1846    1
  2751  1842  1843    1
  2752  1843  1844    1
  2753  1844  1847    1
  2754  1844  2136    1
  2755  1845  1850    1
  2756  1845  1846    1
  2757  1846  1847    1
  2758  1847  1848    1
  2759  1848  1851    1
  2760  1848  2140    1
  2761  1849  1854    1
  2762  1849  1850    1
  2763  1850  1851    1
  2764  1851  1852    1
  2765  1852  1855    1
  2766  1852  2144    1
  2767  1853  1858    1
  2768  1853  1854    1
  2769  1854  1855    1
  2770  1855  1856    1
  2771  1856  1859    1
  2772  1856  2148    1
  2773  1857  1858    1
  2774  1857  1862    1
  2775  1858  1859    1
  2776  1859  1860    1
  2777  1860  1863    1
  2778  1860  2152    1
  2779  1861  1862    1
  2780  1861  1866    1
  2781  1862  1863    1
  2782  1863  1864    1
  2783  1864  1867    1
  2784  1864  2156    1
  2785  1865  1870    1
  2786  1865  1866    1
  2787  1866  1867    1
  2788  1867  1868    1
  2789  1868  1871    1
  2790  1868  2160    1
  2791  1869  1870    1
  2792  1869  1874    1
  2793  1870  1871    1
  2794  1871  1872    1
  2795  1872  1875    1
  2796  1872  2164    1
  2797  1873  1878    1
  2798  1873  1874    1
  2799  1874  1875    1
  2800  1875  1876    1
  2801  1876  1879    1
  2802  1876  2168    1
  2803  1877  1878    1
  2804  1877  1882    1
  2805  1878  1879    1
  2806  1879  1880    1
  2807  1880  1883    1
  2808  1880  2172    1
  2809  1881  1882    1
  2810  1881  1886    1
  2811  1882  1883    1
  2812  1883  1884    1
  2813  1884  1887    1
  2814  1884  2176    1
  2815  1885  1890    1
  2816  1885  1886    1
  2817  1886  1887    1
  2818  1887  1888    1
  2819  1888  1891    1
  2820  1888  2180    1
  2821  1889  1894    1
  2822  1889  1890    1
  2823  1890  1891    1
  2824  1891  1892    1
  2825  1892  1895    1
  2826  1892  2184    1
  2827  1893  1898    1
  2828  1893  1894    1
  2829  1894  1895    1
  2830  1895  1896    1
  2831  1896  1899    1
  2832  1896  2188    1
  2833  1897  1898    1
  2834  1897  1902    1
  2835  1898  1899    1
  2836  1899  1900    1
  2837  1900  1903    1
  2838  1900  2192    1
  2839  1901  1902    1
  2840  1901  1906    1
  2841  1902  1903    1
  2842  1903  1904    1
  2843  1904  1907    1
  2844  1904  2196    1
  2845  1905  1910    1
  2846  1905  1906    1
  2847  1906  1907    1
  2848  1907  1908    1
  2849  1908  1911    1
  2850  1908  2200    1
  2851  1909  1914    1
  2852  1909  1910    1
  2853  1910  1911    1
  2854  1911  1912    1
  2855  1912  1915    1
  2856  1912  2204    1
  2857  1913  1918    1
  2858  1913  1914    1
  2859  1914  1915    1
  2860  1915  1916    1
  2861  1916  1919    1
  2862  1916  2208    1
  2863  1917  1918    1
  2864  1917  1922    1
  2865  1918  1919    1
  2866  1919  1920    1
  2867  1920  1923    1
  2868  1920  2212    1
  2869  1921  1922    1
  2870  1921  1926    1
  2871  1922  1923    1
  2872  1923  1924    1
  2873  1924  1927    1
  2874  1924  2216    1
  2875  1925  1930    1
  2876  1925  1926    1
  2877  1926  1927    1
  2878  1927  1928    1
  2879  1928  1931    1
  2880  1928  2220    1
  2881  1929  1934    1
  2882  1929  1930    1
  2883  1930  1931    1
  2884  1931  1932    1
  2885  1932  1935    1
  2886  1932  2224    1
  2887  1933  1938    1
  2888  1933  1934    1
  2889  1934  1935    1
  2890  1935  1936    1
  2891  1936  1939    1
  2892  1936  2228    1
  2893  1937  1938    1
  2894  1937  1942    1
  2895  1938  1939    1
  2896  1939  1940    1
  2897  1940  1943    1
  2898  1940  2232    1
  2899  1941  1942    1
  2900  1941  1946    1
  2901  1942  1943    1
  2902  1943  1944    1
  2903  1944  1947    1
  2904  1944  2236    1
  2905  1945  1950    1
  2906  1945  1946    1
  2907  1946  1947    1
  2908  1947  1948    1
  2909  1948  1951    1
  2910  1948  2240    1
  2911  1949  1950    1
  2912  1949  1954    1
  2913  1950  1951    1
  2914  1951  1952    1
  2915  1952  1955    1
  2916  1952  2244    1
  2917  1953  1958    1
  2918  1953  1954    1
  2919  1954  1955    1
  2920  1955  1956    1
  2921  1956  1959    1
  2922  1956  2248    1
  2923  1957  1958    1
  2924  1957  1962    1
  2925  1958  1959    1
  2926  1959  1960    1
  2927  1960  1963    1
  2928  1960  2252    1
  2929  1961  1962    1
  2930  1961  1966    1
  2931  1962  1963    1
  2932  1963  1964    1
  2933  1964  1967    1
  2934  1964  2256    1
  2935  1965  1970    1
  2936  1965  1966    1
  2937  1966  1967    1
  2938  1967  1968    1
  2939  1968  1971    1
  2940  1968  2260    1
  2941  1969  1974    1
  2942  1969  1970    1
  2943  1970  1971    1
  2944  1971  1972    1
  2945  1972  1975    1
  2946  1972  2264    1
  2947  1973  1978    1
  2948  1973  1974    1
  2949  1974  1975    1
  2950  1975  1976    1
  2951  1976  1979    1
  2952  1976  2268    1
  2953  1977  1978    1
  2954  1977  1982    1
  2955  1978  1979    1
  2956  1979  1980    1
  2957  1980  1983    1
  2958  1980  2272    1
  2959  1981  1986    1
  2960  1981  1982    1
  2961  1982  1983    1
  2962  1983  1984    1
  2963  1984  1987    1
  2964  1984  2276    1
  2965  1985  1990    1
  2966  1985  1986    1
  2967  1986  1987    1
  2968  1987  1988    1
  2969  1988  1991    1
  2970  1988  2280    1
  2971  1989  1994    1
  2972  1989  1990    1
  2973  1990  1991    1
  2974  1991  1992    1
  2975  1992  1995    1
  2976  1992  2284    1
  2977  1993  1994    1
  2978  1993  1998    1
  2979  1994  1995    1
  2980  1995  1996    1
  2981  1996  1999    1
  2982  1996  2288    1
  2983  1997  1998    1
  2984  1997  2002    1
  2985  1998  1999    1
  2986  1999  2000    1
  2987  2000  2003    1
  2988  2000  2292    1
  2989  2001  2002    1
  2990  2001  2006    1
  2991  2002  2003    1
  2992  2003  2004    1
  2993  2004  2007    1
  2994  2004  2296    1
  2995  2005  2010    1
  2996  2005  2006    1
  2997  2006  2007    1
  2998  2007  2008    1
  2999  2008  2011    1
  3000  2008  2300    1
  3001  2009  2014    1
  3002  2009  2010    1
  3003  2010  2011    1
  3004  2011  2012    1
  3005  2012  2015    1
  3006  2012  2304    1
  3007  2013  2014    1
  3008  2013  2018    1
  3009  2014  2015    1
  3010  2015  2016    1
  3011  2016  2019    1
  3012  2016  2308    1
  3013  2017  2018    1
  3014  2017  2022    1
  3015  2018  2019    1
  3016  2019  2020    1
  3017  2020  2023    1
  3018  2020  2312    1
  3019  2021  2026    1
  3020  2021  2022    1
  3021  2022  2023    1
  3022  2023  2024    1
  3023  2024  2027    1
  3024  2024  2316    1
  3025  2025  2030    1
  3026  2025  2026    1
  3027  2026  2027    1
  3028  2027  2028    1
  3029  2028  2031    1
  3030  2028  2320    1
  3031  2029  2030    1
  3032  2029  2034    1
  3033  2030  2031    1
  3034  2031  2032    1
  3035  2032  2035    1
  3036  2032  2324    1
  3037  2033  2034    1
  3038  2033  2038    1
  3039  2034  2035    1
  3040  2035  2036    1
  3041  2036  2039    1
  3042  2036  2328    1
  3043  2037  2038    1
  3044  2037  2042    1
  3045  2038  2039    1
  3046  2039  2040    1
  3047  2040  2043    1
  3048  2040  2332    1
  3049  2041  2046    1
  3050  2041  2042    1
  3051  2042  2043    1
  3052  2043  2044    1
  3053  2044  2047    1
  3054  2044  2336    1
  3055  2045  2050    1
  3056  2045  2046    1
  3057  2046  2047    1
  3058  2047  2048    1
  3059  2048  2051    1
  3060  2048  2340    1
  3061  2049  2054    1
  3062  2049  2050    1
  3063  2050  2051    1
  3064  2051  2052    1
  3065  2052  2055    1
  3066  2052  2344    1
  3067  2053  2054    1
  3068  2053  2058    1
  3069  2054  2055    1
  3070  2055  2056    1
  3071  2056  2348    1
  3072  2057  2058    1
  3073  2057  2061    1
  3074  2059  2062    1
  3075  2059  2352    1
  3076  2060  2065    1
  3077  2060  2061    1
  3078  2061  2062    1
  3079  2062  2063    1
  3080  2063  2066    1
  3081  2063  2356    1
  3082  2064  2069    1
  3083  2064  2065    1
  3084  2065  2066    1
  3085  2066  2067    1
  3086  2067  2070    1
  3087  2067  2360    1
  3088  2068  2069    1
  3089  2069  2070    1
  3090  2070  2071    1
  3091  2071  2364    1
  3092  2072  2073    1
  3093  2072  2077    1
  3094  2073  2074    1
  3095  2074  2075    1
  3096  2075  2078    1
  3097  2075  2368    1
  3098  2076  2077    1
  3099  2076  2081    1
  3100  2077  2078    1
  3101  2078  2079    1
  3102  2079  2082    1
  3103  2079  2372    1
  3104  2080  2085    1
  3105  2080  2081    1
  3106  2081  2082    1
  3107  2082  2083    1
  3108  2083  2086    1
  3109  2083  2376    1
  3110  2084  2089    1
  3111  2084  2085    1
  3112  2085  2086    1
  3113  2086  2087    1
  3114  2087  2090    1
  3115  2087  2380    1
  3116  2088  2093    1
  3117  2088  2089    1
  3118  2089  2090    1
  3119  2090  2091    1
  3120  2091  2094    1
  3121  2091  2384    1
  3122  2092  2093    1
  3123  2092  2097    1
  3124  2093  2094    1
  3125  2094  2095    1
  3126  2095  2098    1
  3127  2095  2388    1
  3128  2096  2097    1
  3129  2096  2101    1
  3130  2097  2098    1
  3131  2098  2099    1
  3132  2099  2102    1
  3133  2099  2392    1
  3134  2100  2105    1
  3135  2100  2101    1
  3136  2101  2102    1
  3137  2102  2103    1
  3138  2103  2106    1
  3139  2103  2396    1
  3140  2104  2105    1
  3141  2104  2109    1
  3142  2105  2106    1
  3143  2106  2107    1
  3144  2107  2110    1
  3145  2107  2400    1
  3146  2108  2113    1
  3147  2108  2109    1
  3148  2109  2110    1
  3149  2110  2111    1
  3150  2111  2114    1
  3151  2111  2404    1
  3152  2112  2113    1
  3153  2112  2117    1
  3154  2113  2114    1
  3155  2114  2115    1
  3156  2115  2118    1
  3157  2115  2408    1
  3158  2116  2117    1
  3159  2116  2121    1
  3160  2117  2118    1
  3161  2118  2119    1
  3162  2119  2122    1
  3163  2119  2412    1
  3164  2120  2125    1
  3165  2120  2121    1
  3166  2121  2122    1
  3167  2122  2123    1
  3168  2123  2126    1
  3169  2123  2416    1
  3170  2124  2129    1
  3171  2124  2125    1
  3172  2125  2126    1
  3173  2126  2127    1
  3174  2127  2130    1
  3175  2127  2420    1
  3176  2128  2133    1
  3177  2128  2129    1
  3178  2129  2130    1
  3179  2130  2131    1
  3180  2131  2134    1
  3181  2131  2424    1
  3182  2132  2133    1
  3183  2132  2137    1
  3184  2133  2134    1
  3185  2134  2135    1
  3186  2135  2138    1
  3187  2135  2428    1
  3188  2136  2137    1
  3189  2136  2141    1
  3190  2137  2138    1
  3191  2138  2139    1
  3192  2139  2142    1
  3193  2139  2432    1
  3194  2140  2145    1
  3195  2140  2141    1
  3196  2141  2142    1
  3197  2142  2143    1
  3198  2143  2146    1
  3199  2143  2436    1
  3200  2144  2149    1
  3201  2144  2145    1
  3202  2145  2146    1
  3203  2146  2147    1
  3204  2147  2150    1
  3205  2147  2440    1
  3206  2148  2153    1
  3207  2148  2149    1
  3208  2149  2150    1
  3209  2150  2151    1
  3210  2151  2154    1
  3211  2151  2444    1
  3212  2152  2153    1
  3213  2152  2157    1
  3214  2153  2154    1
  3215  2154  2155    1
  3216  2155  2158    1
  3217  2155  2448    1
  3218  2156  2157    1
  3219  2156  2161    1
  3220  2157  2158    1
  3221  2158  2159    1
  3222  2159  2162    1
  3223  2159  2452    1
  3224  2160  2165    1
  3225  2160  2161    1
  3226  2161  2162    1
  3227  2162  2163    1
  3228  2163  2166    1
  3229  2163  2456    1
  3230  2164  2169    1
  3231  2164  2165    1
  3232  2165  2166    1
  3233  2166  2167    1
  3234  2167  2170    1
  3235  2167  2460    1
  3236  2168  2173    1
  3237  2168  2169    1
  3238  2169  2170    1
  3239  2170  2171    1
  3240  2171  2174    1
  3241  2171  2464    1
  3242  2172  2173    1
  3243  2172  2177    1
  3244  2173  2174    1
  3245  2174  2175    1
  3246  2175  2178    1
  3247  2175  2468    1
  3248  2176  2177    1
  3249  2176  2181    1
  3250  2177  2178    1
  3251  2178  2179    1
  3252  2179  2182    1
  3253  2179  2472    1
  3254  2180  2185    1
  3255  2180  2181    1
  3256  2181  2182    1
  3257  2182  2183    1
  3258  2183  2186    1
  3259  2183  2476    1
  3260  2184  2185    1
  3261  2184  2189    1
  3262  2185  2186    1
  3263  2186  2187    1
  3264  2187  2190    1
  3265  2187  2480    1
  3266  2188  2193    1
  3267  2188  2189    1
  3268  2189  2190    1
  3269  2190  2191    1
  3270  2191  2194    1
  3271  2191  2484    1
  3272  2192  2193    1
  3273  2192  2197    1
  3274  2193  2194    1
  3275  2194  2195    1
  3276  2195  2198    1
  3277  2195  2488    1
  3278  2196  2197    1
  3279  2196  2201    1
  3280  2197  2198    1
  3281  2198  2199    1
  3282  2199  2202    1
  3283  2199  2492    1
  3284  2200  2205    1
  3285  2200  2201    1
  3286  2201  2202    1
  3287  2202  2203    1
  3288  2203  2206    1
  3289  2203  2496    1
  3290  2204  2209    1
  3291  2204  2205    1
  3292  2205  2206    1
  3293  2206  2207    1
  3294  2207  2210    1
  3295  2207  2500    1
  3296  2208  2213    1
  3297  2208  2209    1
  3298  2209  2210    1
  3299  2210  2211    1
  3300  2211  2214    1
  3301  2211  2504    1
  3302  2212  2213    1
  3303  2212  2217    1
  3304  2213  2214    1
  3305  2214  2215    1
  3306  2215  2218    1
  3307  2215  2508    1
  3308  2216  2217    1
  3309  2216  2221    1
  3310  2217  2218    1
  3311  2218  2219    1
  3312  2219  2222    1
  3313  2219  2512    1
  3314  2220  2225    1
  3315  2220  2221    1
  3316  2221  2222    1
  3317  2222  2223    1
  3318  2223  2226    1
  3319  2223  2516    1
  3320  2224  2229    1
  3321  2224  2225    1
  3322  2225  2226    1
  3323  2226  2227    1
  3324  2227  2230    1
  3325  2227  2520    1
  3326  2228  2233    1
  3327  2228  2229    1
  3328  2229  2230    1
  3329  2230  2231    1
  3330  2231  2234    1
  3331  2231  2524    1
  3332  2232  2233    1
  3333  2232  2237    1
  3334  2233  2234    1
  3335  2234  2235    1
  3336  2235  2238    1
  3337  2235  2528    1
  3338  2236  2237    1
  3339  2236  2241    1
  3340  2237  2238    1
  3341  2238  2239    1
  3342  2239  2242    1
  3343  2239  2532    1
  3344  2240  2245    1
  3345  2240  2241    1
  3346  2241  2242    1
  3347  2242  2243    1
  3348  2243  2246    1
  3349  2243  2536    1
  3350  2244  2249    1
  3351  2244  2245    1
  3352  2245  2246    1
  3353  2246  2247    1
  3354  2247  2250    1
  3355  2247  2540    1
  3356  2248  2253    1
  3357  2248  2249    1
  3358  2249  2250    1
  3359  2250  2251    1
  3360  2251  2254    1
  3361  2251  2544    1
  3362  2252  2253    1
  3363  2252  2257    1
  3364  2253  2254    1
  3365  2254  2255    1
  3366  2255  2258    1
  3367  2255  2548    1
  3368  2256  2257    1
  3369  2256  2261    1
  3370  2257  2258    1
  3371  2258  2259    1
  3372  2259  2262    1
  3373  2259  2552    1
  3374  2260  2265    1
  3375  2260  2261    1
  3376  2261  2262    1
  3377  2262  2263    1
  3378  2263  2266    1
  3379  2263  2556    1
  3380  2264  2265    1
  3381  2264  2269    1
  3382  2265  2266    1
  3383  2266  2267    1
  3384  2267  2270    1
  3385  2267  2560    1
  3386  2268  2273    1
  3387  2268  2269    1
  3388  2269  2270    1
  3389  2270  2271    1
  3390  2271  2274    1
  3391  2271  2564    1
  3392  2272  2273    1
  3393  2272  2277    1
  3394  2273  2274    1
  3395  2274  2275    1
  3396  2275  2278    1
  3397  2275  2568    1
  3398  2276  2281    1
  3399  2276  2277    1
  3400  2277  2278    1
  3401  2278  2279    1
  3402  2279  2282    1
  3403  2279  2572    1
  3404  2280  2285    1
  3405  2280  2281    1
  3406  2281  2282    1
  3407  2282  2283    1
  3408  2283  2286    1
  3409  2283  2576    1
  3410  2284  2289    1
  3411  2284  2285    1
  3412  2285  2286    1
  3413  2286  2287    1
  3414  2287  2290    1
  3415  2287  2580    1
  3416  2288  2289    1
  3417  2288  2293    1
  3418  2289  2290    1
  3419  2290  2291    1
  3420  2291  2294    1
  3421  2291  2584    1
  3422  2292  2293    1
  3423  2292  2297    1
  3424  2293  2294    1
  3425  2294  2295    1
  3426  2295  2298    1
  3427  2295  2588    1
  3428  2296  2301    1
  3429  2296  2297    1
  3430  2297  2298    1
  3431  2298  2299    1
  3432  2299  2302    1
  3433  2299  2592    1
  3434  2300  2305    1
  3435  2300  2301    1
  3436  2301  2302    1
  3437  2302  2303    1
  3438  2303  2306    1
  3439  2303  2596    1
  3440  2304  2309    1
  3441  2304  2305    1
  3442  2305  2306    1
  3443  2306  2307    1
  3444  2307  2310    1
  3445  2307  2600    1
  3446  2308  2309    1
  3447  2308  2313    1
  3448  2309  2310    1
  3449  2310  2311    1
  3450  2311  2314    1
  3451  2311  2604    1
  3452  2312  2313    1
  3453  2312  2317    1
  3454  2313  2314    1
  3455  2314  2315    1
  3456  2315  2318    1
  3457  2315  2608    1
  3458  2316  2317    1
  3459  2316  2321    1
  3460  2317  2318    1
  3461  2318  2319    1
  3462  2319  2322    1
  3463  2319  2612    1
  3464  2320  2325    1
  3465  2320  2321    1
  3466  2321  2322    1
  3467  2322  2323    1
  3468  2323  2326    1
  3469  2323  2616    1
  3470  2324  2329    1
  3471  2324  2325    1
  3472  2325  2326    1
  3473  2326  2327    1
  3474  2327  2330    1
  3475  2327  2620    1
  3476  2328  2329    1
  3477  2328  2333    1
  3478  2329  2330    1
  3479  2330  2331    1
  3480  2331  2334    1
  3481  2331  2624    1
  3482  2332  2333    1
  3483  2332  2337    1
  3484  2333  2334    1
  3485  2334  2335    1
  3486  2335  2338    1
  3487  2335  2628    1
  3488  2336  2341    1
  3489  2336  2337    1
  3490  2337  2338    1
  3491  2338  2339    1
  3492  2339  2342    1
  3493  2339  2632    1
  3494  2340  2345    1
  3495  2340  2341    1
  3496  2341  2342    1
  3497  2342  2343    1
  3498  2343  2346    1
  3499  2343  2636    1
  3500  2344  2345    1
  3501  2344  2349    1
  3502  2345  2346    1
  3503  2346  2347    1
  3504  2347  2350    1
  3505  2347  2640    1
  3506  2348  2349    1
  3507  2348  2353    1
  3508  2349  2350    1
  3509  2350  2351    1
  3510  2351  2354    1
  3511  2351  2644    1
  3512  2352  2353    1
  3513  2352  2357    1
  3514  2353  2354    1
  3515  2354  2355    1
  3516  2355  2358    1
  3517  2355  2648    1
  3518  2356  2361    1
  3519  2356  2357    1
  3520  2357  2358    1
  3521  2358  2359    1
  3522  2359  2362    1
  3523  2359  2652    1
  3524  2360  2365    1
  3525  2360  2361    1
  3526  2361  2362    1
  3527  2362  2363    1
  3528  2363  2366    1
  3529  2363  2656    1
  3530  2364  2365    1
  3531  2365  2366    1
  3532  2366  2367    1
  3533  2367  2660    1
  3534  2368  2369    1
  3535  2368  2373    1
  3536  2369  2370    1
  3537  2370  2371    1
  3538  2371  2664    1
  3539  2371  2374    1
  3540  2372  2373    1
  3541  2372  2377    1
  3542  2373  2374    1
  3543  2374  2375    1
  3544  2375  2668    1
  3545  2375  2378    1
  3546  2376  2381    1
  3547  2376  2377    1
  3548  2377  2378    1
  3549  2378  2379    1
  3550  2379  2672    1
  3551  2379  2382    1
  3552  2380  2385    1
  3553  2380  2381    1
  3554  2381  2382    1
  3555  2382  2383    1
  3556  2383  2676    1
  3557  2383  2386    1
  3558  2384  2389    1
  3559  2384  2385    1
  3560  2385  2386    1
  3561  2386  2387    1
  3562  2387  2680    1
  3563  2387  2390    1
  3564  2388  2389    1
  3565  2388  2393    1
  3566  2389  2390    1
  3567  2390  2391    1
  3568  2391  2684    1
  3569  2391  2394    1
  3570  2392  2393    1
  3571  2392  2397    1
  3572  2393  2394    1
  3573  2394  2395    1
  3574  2395  2688    1
  3575  2395  2398    1
  3576  2396  2401    1
  3577  2396  2397    1
  3578  2397  2398    1
  3579  2398  2399    1
  3580  2399  2692    1
  3581  2399  2402    1
  3582  2400  2405    1
  3583  2400  2401    1
  3584  2401  2402    1
  3585  2402  2403    1
  3586  2403  2696    1
  3587  2403  2406    1
  3588  2404  2409    1
  3589  2404  2405    1
  3590  2405  2406    1
  3591  2406  2407    1
  3592  2407  2700    1
  3593  2407  2410    1
  3594  2408  2409    1
  3595  2408  2413    1
  3596  2409  2410    1
  3597  2410  2411    1
  3598  2411  2704    1
  3599  2411  2414    1
  3600  2412  2413    1
  3601  2412  2417    1
  3602  2413  2414    1
  3603  2414  2415    1
  3604  2415  2708    1
  3605  2415  2418    1
  3606  2416  2421    1
  3607  2416  2417    1
  3608  2417  2418    1
  3609  2418  2419    1
  3610  2419  2712    1
  3611  2419  2422    1
  3612  2420  2425    1
  3613  2420  2421    1
  3614  2421  2422    1
  3615  2422  2423    1
  3616  2423  2716    1
  3617  2423  2426    1
  3618  2424  2429    1
  3619  2424  2425    1
  3620  2425  2426    1
  3621  2426  2427    1
  3622  2427  2720    1
  3623  2427  2430    1
  3624  2428  2429    1
  3625  2428  2433    1
  3626  2429  2430    1
  3627  2430  2431    1
  3628  2431  2724    1
  3629  2431  2434    1
  3630  2432  2433    1
  3631  2432  2437    1
  3632  2433  2434    1
  3633  2434  2435    1
  3634  2435  2728    1
  3635  2435  2438    1
  3636  2436  2441    1
  3637  2436  2437    1
  3638  2437  2438    1
  3639  2438  2439    1
  3640  2439  2732    1
  3641  2439  2442    1
  3642  2440  2445    1
  3643  2440  2441    1
  3644  2441  2442    1
  3645  2442  2443    1
  3646  2443  2446    1
  3647  2443  2736    1
  3648  2444  2449    1
  3649  2444  2445    1
  3650  2445  2446    1
  3651  2446  2447    1
  3652  2447  2740    1
  3653  2447  2450    1
  3654  2448  2449    1
  3655  2448  2453    1
  3656  2449  2450    1
  3657  2450  2451    1
  3658  2451  2744    1
  3659  2451  2454    1
  3660  2452  2453    1
  3661  2452  2457    1
  3662  2453  2454    1
  3663  2454  2455    1
  3664  2455  2748    1
  3665  2455  2458    1
  3666  2456  2461    1
  3667  2456  2457    1
  3668  2457  2458    1
  3669  2458  2459    1
  3670  2459  2752    1
  3671  2459  2462    1
  3672  2460  2465    1
  3673  2460  2461    1
  3674  2461  2462    1
  3675  2462  2463    1
  3676  2463  2756    1
  3677  2463  2466    1
  3678  2464  2469    1
  3679  2464  2465    1
  3680  2465  2466    1
  3681  2466  2467    1
  3682  2467  2760    1
  3683  2467  2470    1
  3684  2468  2469    1
  3685  2468  2473    1
  3686  2469  2470    1
  3687  2470  2471    1
  3688  2471  2764    1
  3689  2471  2474    1
  3690  2472  2473    1
  3691  2472  2477    1
  3692  2473  2474    1
  3693  2474  2475    1
  3694  2475  2768    1
  3695  2475  2478    1
  3696  2476  2481    1
  3697  2476  2477    1
  3698  2477  2478    1
  3699  2478  2479    1
  3700  2479  2772    1
  3701  2479  2482    1
  3702  2480  2485    1
  3703  2480  2481    1
  3704  2481  2482    1
  3705  2482  2483    1
  3706  2483  2776    1
  3707  2483  2486    1
  3708  2484  2489    1
  3709  2484  2485    1
  3710  2485  2486    1
  3711  2486  2487    1
  3712  2487  2780    1
  3713  2487  2490    1
  3714  2488  2489    1
  3715  2488  2493    1
  3716  2489  2490    1
  3717  2490  2491    1
  3718  2491  2784    1
  3719  2491  2494    1
  3720  2492  2493    1
  3721  2492  2497    1
  3722  2493  2494    1
  3723  2494  2495    1
  3724  2495  2788    1
  3725  2495  2498    1
  3726  2496  2501    1
  3727  2496  2497    1
  3728  2497  2498    1
  3729  2498  2499    1
  3730  2499  2792    1
  3731  2499  2502    1
  3732  2500  2505    1
  3733  2500  2501    1
  3734  2501  2502    1
  3735  2502  2503    1
  3736  2503  2796    1
  3737  2503  2506    1
  3738  2504  2509    1
  3739  2504  2505    1
  3740  2505  2506    1
  3741  2506  2507    1
  3742  2507  2800    1
  3743  2507  2510    1
  3744  2508  2509    1
  3745  2508  2513    1
  3746  2509  2510    1
  3747  2510  2511    1
  3748  2511  2804    1
  3749  2511  2514    1
  3750  2512  2513    1
  3751  2512  2517    1
  3752  2513  2514    1
  3753  2514  2515    1
  3754  2515  2808    1
  3755  2515  2518    1
  3756  2516  2521    1
  3757  2516  2517    1
  3758  2517  2518    1
  3759  2518  2519    1
  3760  2519  2812    1
  3761  2519  2522    1
  3762  2520  2525    1
  3763  2520  2521    1
  3764  2521  2522    1
  3765  2522  2523    1
  3766  2523  2526    1
  3767  2523  2816    1
  3768  2524  2529    1
  3769  2524  2525    1
  3770  2525  2526    1
  3771  2526  2527    1
  3772  2527  2820    1
  3773  2527  2530    1
  3774  2528  2529    1
  3775  2528  2533    1
  3776  2529  2530    1
  3777  2530  2531    1
  3778  2531  2824    1
  3779  2531  2534    1
  3780  2532  2533    1
  3781  2532  2537    1
  3782  2533  2534    1
  3783  2534  2535    1
  3784  2535  2828    1
  3785  2535  2538    1
  3786  2536  2541    1
  3787  2536  2537    1
  3788  2537  2538    1
  3789  2538  2539    1
  3790  2539  2832    1
  3791  2539  2542    1
  3792  2540  2545    1
  3793  2540  2541    1
  3794  2541  2542    1
  3795  2542  2543    1
  3796  2543  2836    1
  3797  2543  2546    1
  3798  2544  2549    1
  3799  2544  2545    1
  3800  2545  2546    1
  3801  2546  2547    1
  3802  2547  2840    1
  3803  2547  2550    1
  3804  2548  2549    1
  3805  2548  2553    1
  3806  2549  2550    1
  3807  2550  2551    1
  3808  2551  2844    1
  3809  2551  2554    1
  3810  2552  2553    1
  3811  2552  2557    1
  3812  2553  2554    1
  3813  2554  2555    1
  3814  2555  2848    1
  3815  2555  2558    1
  3816  2556  2561    1
  3817  2556  2557    1
  3818  2557  2558    1
  3819  2558  2559    1
  3820  2559  2852    1
  3821  2559  2562    1
  3822  2560  2565    1
  3823  2560  2561    1
  3824  2561  2562    1
  3825  2562  2563    1
  3826  2563  2856    1
  3827  2563  2566    1
  3828  2564  2569    1
  3829  2564  2565    1
  3830  2565  2566    1
  3831  2566  2567    1
  3832  2567  2860    1
  3833  2567  2570    1
  3834  2568  2569    1
  3835  2568  2573    1
  3836  2569  2570    1
  3837  2570  2571    1
  3838  2571  2864    1
  3839  2571  2574    1
  3840  2572  2577    1
  3841  2572  2573    1
  3842  2573  2574    1
  3843  2574  2575    1
  3844  2575  2578    1
  3845  2575  2868    1
  3846  2576  2581    1
  3847  2576  2577    1
  3848  2577  2578    1
  3849  2578  2579    1
  3850  2579  2872    1
  3851  2579  2582    1
  3852  2580  2585    1
  3853  2580  2581    1
  3854  2581  2582    1
  3855  2582  2583    1
  3856  2583  2876    1
  3857  2583  2586    1
  3858  2584  2585    1
  3859  2584  2589    1
  3860  2585  2586    1
  3861  2586  2587    1
  3862  2587  2880    1
  3863  2587  2590    1
  3864  2588  2589    1
  3865  2588  2593    1
  3866  2589  2590    1
  3867  2590  2591    1
  3868  2591  2884    1
  3869  2591  2594    1
  3870  2592  2597    1
  3871  2592  2593    1
  3872  2593  2594    1
  3873  2594  2595    1
  3874  2595  2888    1
  3875  2595  2598    1
  3876  2596  2601    1
  3877  2596  2597    1
  3878  2597  2598    1
  3879  2598  2599    1
  3880  2599  2892    1
  3881  2599  2602    1
  3882  2600  2605    1
  3883  2600  2601    1
  3884  2601  2602    1
  3885  2602  2603    1
  3886  2603  2896    1
  3887  2603  2606    1
  3888  2604  2605    1
  3889  2604  2609    1
  3890  2605  2606    1
  3891  2606  2607    1
  3892  2607  2900    1
  3893  2607  2610    1
  3894  2608  2609    1
  3895  2608  2613    1
  3896  2609  2610    1
  3897  2610  2611    1
  3898  2611  2904    1
  3899  2611  2614    1
  3900  2612  2617    1
  3901  2612  2613    1
  3902  2613  2614    1
  3903  2614  2615    1
  3904  2615  2908    1
  3905  2615  2618    1
  3906  2616  2621    1
  3907  2616  2617    1
  3908  2617  2618    1
  3909  2618  2619    1
  3910  2619  2912    1
  3911  2619  2622    1
  3912  2620  2625    1
  3913  2620  2621    1
  3914  2621  2622    1
  3915  2622  2623    1
  3916  2623  2916    1
  3917  2623  2626    1
  3918  2624  2625    1
  3919  2624  2629    1
  3920  2625  2626    1
  3921  2626  2627    1
  3922  2627  2920    1
  3923  2627  2630    1
  3924  2628  2629    1
  3925  2628  2633    1
  3926  2629  2630    1
  3927  2630  2631    1
  3928  2631  2924    1
  3929  2631  2634    1
  3930  2632  2637    1
  3931  2632  2633    1
  3932  2633  2634    1
  3933  2634  2635    1
  3934  2635  2928    1
  3935  2635  2638    1
  3936  2636  2641    1
  3937  2636  2637    1
  3938  2637  2638    1
  3939  2638  2639    1
  3940  2639  2932    1
  3941  2639  2642    1
  3942  2640  2645    1
  3943  2640  2641    1
  3944  2641  2642    1
  3945  2642  2643    1
  3946  2643  2936    1
  3947  2643  2646    1
  3948  2644  2645    1
  3949  2644  2649    1
  3950  2645  2646    1
  3951  2646  2647    1
  3952  2647  2940    1
  3953  2647  2650    1
  3954  2648  2649    1
  3955  2648  2653    1
  3956  2649  2650    1
  3957  2650  2651    1
  3958  2651  2944    1
  3959  2651  2654    1
  3960  2652  2657    1
  3961  2652  2653    1
  3962  2653  2654    1
  3963  2654  2655    1
  3964  2655  2658    1
  3965  2655  2948    1
  3966  2656  2661    1
  3967  2656  2657    1
  3968  2657  2658    1
  3969  2658  2659    1
  3970  2659  2952    1
  3971  2659  2662    1
  3972  2660  2661    1
  3973  2661  2662    1
  3974  2662  2663    1
  3975  2663  2956    1
  3976  2664  2665    1
  3977  2664  2669    1
  3978  2665  2666    1
  3979  2666  2667    1
  3980  2667  2960    1
  3981  2667  2670    1
  3982  2668  2669    1
  3983  2668  2673    1
  3984  2669  2670    1
  3985  2670  2671    1
  3986  2671  2964    1
  3987  2671  2674    1
  3988  2672  2677    1
  3989  2672  2673    1
  3990  2673  2674    1
  3991  2674  2675    1
  3992  2675  2968    1
  3993  2675  2678    1
  3994  2676  2681    1
  3995  2676  2677    1
  3996  2677  2678    1
  3997  2678  2679    1
  3998  2679  2682    1
  3999  2679  2972    1
  4000  2680  2685    1
  4001  2680  2681    1
  4002  2681  2682    1
  4003  2682  2683    1
  4004  2683  2976    1
  4005  2683  2686    1
  4006  2684  2685    1
  4007  2684  2689    1
  4008  2685  2686    1
  4009  2686  2687    1
  4010  2687  2980    1
  4011  2687  2690    1
  4012  2688  2689    1
  4013  2688  2693    1
  4014  2689  2690    1
  4015  2690  2691    1
  4016  2691  2984    1
  4017  2691  2694    1
  4018  2692  2697    1
  4019  2692  2693    1
  4020  2693  2694    1
  4021  2694  2695    1
  4022  2695  2988    1
  4023  2695  2698    1
  4024  2696  2701    1
  4025  2696  2697    1
  4026  2697  2698    1
  4027  2698  2699    1
  4028  2699  2992    1
  4029  2699  2702    1
  4030  2700  2705    1
  4031  2700  2701    1
  4032  2701  2702    1
  4033  2702  2703    1
  4034  2703  2996    1
  4035  2703  2706    1
  4036  2704  2705    1
  4037  2704  2709    1
  4038  2705  2706    1
  4039  2706  2707    1
  4040  2707  3000    1
  4041  2707  2710    1
  4042  2708  2709    1
  4043  2708  2713    1
  4044  2709  2710    1
  4045  2710  2711    1
  4046  2711  3004    1
  4047  2711  2714    1
  4048  2712  2717    1
  4049  2712  2713    1
  4050  2713  2714    1
  4051  2714  2715    1
  4052  2715  3008    1
  4053  2715  2718    1
  4054  2716  2721    1
  4055  2716  2717    1
  4056  2717  2718    1
  4057  2718  2719    1
  4058  2719  3012    1
  4059  2719  2722    1
  4060  2720  2725    1
  4061  2720  2721    1
  4062  2721  2722    1
  4063  2722  2723    1
  4064  2723  3016    1
  4065  2723  2726    1
  4066  2724  2725    1
  4067  2724  2729    1
  4068  2725  2726    1
  4069  2726  2727    1
  4070  2727  3020    1
  4071  2727  2730    1
  4072  2728  2729    1
  4073  2728  2733    1
  4074  2729  2730    1
  4075  2730  2731    1
  4076  2731  3024    1
  4077  2731  2734    1
  4078  2732  2737    1
  4079  2732  2733    1
  4080  2733  2734    1
  4081  2734  2735    1
  4082  2735  3028    1
  4083  2735  2738    1
  4084  2736  2741    1
  4085  2736  2737    1
  4086  2737  2738    1
  4087  2738  2739    1
  4088  2739  3032    1
  4089  2739  2742    1
  4090  2740  2745    1
  4091  2740  2741    1
  4092  2741  2742    1
  4093  2742  2743    1
  4094  2743  3036    1
  4095  2743  2746    1
  4096  2744  2745    1
  4097  2744  2749    1
  4098  2745  2746    1
  4099  2746  2747    1
  4100  2747  3040    1
  4101  2747  2750    1
  4102  2748  2749    1
  4103  2748  2753    1
  4104  2749  2750    1
  4105  2750  2751    1
  4106  2751  3044    1
  4107  2751  2754    1
  4108  2752  2757    1
  4109  2752  2753    1
  4110  2753  2754    1
  4111  2754  2755    1
  4112  2755  3048    1
  4113  2755  2758    1
  4114  2756  2761    1
  4115  2756  2757    1
  4116  2757  2758    1
  4117  2758  2759    1
  4118  2759  2762    1
  4119  2759  3052    1
  4120  2760  2765    1
  4121  2760  2761    1
  4122  2761  2762    1
  4123  2762  2763    1
  4124  2763  3056    1
  4125  2763  2766    1
  4126  2764  2765    1
  4127  2764  2769    1
  4128  2765  2766    1
  4129  2766  2767    1
  4130  2767  3060    1
  4131  2767  2770    1
  4132  2768  2769    1
  4133  2768  2773    1
  4134  2769  2770    1
  4135  2770  2771    1
  4136  2771  3064    1
  4137  2771  2774    1
  4138  2772  2777    1
  4139  2772  2773    1
  4140  2773  2774    1
  4141  2774  2775    1
  4142  2775  3068    1
  4143  2775  2778    1
  4144  2776  2781    1
  4145  2776  2777    1
  4146  2777  2778    1
  4147  2778  2779    1
  4148  2779  3072    1
  4149  2779  2782    1
  4150  2780  2785    1
  4151  2780  2781    1
  4152  2781  2782    1
  4153  2782  2783    1
  4154  2783  3076    1
  4155  2783  2786    1
  4156  2784  2785    1
  4157  2784  2789    1
  4158  2785  2786    1
  4159  2786  2787    1
  4160  2787  3080    1
  4161  2787  2790    1
  4162  2788  2789    1
  4163  2788  2793    1
  4164  2789  2790    1
  4165  2790  2791    1
  4166  2791  3084    1
  4167  2791  2794    1
  4168  2792  2797    1
  4169  2792  2793    1
  4170  2793  2794    1
  4171  2794  2795    1
  4172  2795  3088    1
  4173  2795  2798    1
  4174  2796  2801    1
  4175  2796  2797    1
  4176  2797  2798    1
  4177  2798  2799    1
  4178  2799  3092    1
  4179  2799  2802    1
  4180  2800  2805    1
  4181  2800  2801    1
  4182  2801  2802    1
  4183  2802  2803    1
  4184  2803  3096    1
  4185  2803  2806    1
  4186  2804  2805    1
  4187  2804  2809    1
  4188  2805  2806    1
  4189  2806  2807    1
  4190  2807  3100    1
  4191  2807  2810    1
  4192  2808  2809    1
  4193  2808  2813    1
  4194  2809  2810    1
  4195  2810  2811    1
  4196  2811  3104    1
  4197  2811  2814    1
  4198  2812  2817    1
  4199  2812  2813    1
  4200  2813  2814    1
  4201  2814  2815    1
  4202  2815  3108    1
  4203  2815  2818    1
  4204  2816  2821    1
  4205  2816  2817    1
  4206  2817  2818    1
  4207  2818  2819    1
  4208  2819  3112    1
  4209  2819  2822    1
  4210  2820  2825    1
  4211  2820  2821    1
  4212  2821  2822    1
  4213  2822  2823    1
  4214  2823  3116    1
  4215  2823  2826    1
  4216  2824  2825    1
  4217  2824  2829    1
  4218  2825  2826    1
  4219  2826  2827    1
  4220  2827  3120    1
  4221  2827  2830    1
  4222  2828  2829    1
  4223  2828  2833    1
  4224  2829  2830    1
  4225  2830  2831    1
  4226  2831  3124    1
  4227  2831  2834    1
  4228  2832  2837    1
  4229  2832  2833    1
  4230  2833  2834    1
  4231  2834  2835    1
  4232  2835  3128    1
  4233  2835  2838    1
  4234  2836  2841    1
  4235  2836  2837    1
  4236  2837  2838    1
  4237  2838  2839    1
  4238  2839  2842    1
  4239  2839  3132    1
  4240  2840  2845    1
  4241  2840  2841    1
  4242  2841  2842    1
  4243  2842  2843    1
  4244  2843  3136    1
  4245  2843  2846    1
  4246  2844  2845    1
  4247  2844  2849    1
  4248  2845  2846    1
  4249  2846  2847    1
  4250  2847  3140    1
  4251  2847  2850    1
  4252  2848  2849    1
  4253  2848  2853    1
  4254  2849  2850    1
  4255  2850  2851    1
  4256  2851  3144    1
  4257  2851  2854    1
  4258  2852  2857    1
  4259  2852  2853    1
  4260  2853  2854    1
  4261  2854  2855    1
  4262  2855  3148    1
  4263  2855  2858    1
  4264  2856  2861    1
  4265  2856  2857    1
  4266  2857  2858    1
  4267  2858  2859    1
  4268  2859  3152    1
  4269  2859  2862    1
  4270  2860  2865    1
  4271  2860  2861    1
  4272  2861  2862    1
  4273  2862  2863    1
  4274  2863  3156    1
  4275  2863  2866    1
  4276  2864  2865    1
  4277  2864  2869    1
  4278  2865  2866    1
  4279  2866  2867    1
  4280  2867  3160    1
  4281  2867  2870    1
  4282  2868  2873    1
  4283  2868  2869    1
  4284  2869  2870    1
  4285  2870  2871    1
  4286  2871  3164    1
  4287  2871  2874    1
  4288  2872  2877    1
  4289  2872  2873    1
  4290  2873  2874    1
  4291  2874  2875    1
  4292  2875  3168    1
  4293  2875  2878    1
  4294  2876  2881    1
  4295  2876  2877    1
  4296  2877  2878    1
  4297  2878  2879    1
  4298  2879  3172    1
  4299  2879  2882    1
  4300  2880  2881    1
  4301  2880  2885    1
  4302  2881  2882    1
  4303  2882  2883    1
  4304  2883  3176    1
  4305  2883  2886    1
  4306  2884  2885    1
  4307  2884  2889    1
  4308  2885  2886    1
  4309  2886  2887    1
  4310  2887  3180    1
  4311  2887  2890    1
  4312  2888  2893    1
  4313  2888  2889    1
  4314  2889  2890    1
  4315  2890  2891    1
  4316  2891  2894    1
  4317  2891  3184    1
  4318  2892  2897    1
  4319  2892  2893    1
  4320  2893  2894    1
  4321  2894  2895    1
  4322  2895  3188    1
  4323  2895  2898    1
  4324  2896  2901    1
  4325  2896  2897    1
  4326  2897  2898    1
  4327  2898  2899    1
  4328  2899  3192    1
  4329  2899  2902    1
  4330  2900  2901    1
  4331  2900  2905    1
  4332  2901  2902    1
  4333  2902  2903    1
  4334  2903  3196    1
  4335  2903  2906    1
  4336  2904  2905    1
  4337  2904  2909    1
  4338  2905  2906    1
  4339  2906  2907    1
  4340  2907  3200    1
  4341  2907  2910    1
  4342  2908  2913    1
  4343  2908  2909    1
  4344  2909  2910    1
  4345  2910  2911    1
  4346  2911  3204    1
  4347  2911  2914    1
  4348  2912  2917    1
  4349  2912  2913    1
  4350  2913  2914    1
  4351  2914  2915    1
  4352  2915  3208    1
  4353  2915  2918    1
  4354  2916  2921    1
  4355  2916  2917    1
  4356  2917  2918    1
  4357  2918  2919    1
  4358  2919  3212    1
  4359  2919  2922    1
  4360  2920  2921    1
  4361  2920  2925    1
  4362  2921  2922    1
  4363  2922  2923    1
  4364  2923  3216    1
  4365  2923  2926    1
  4366  2924  2925    1
  4367  2924  2929    1
  4368  2925  2926    1
  4369  2926  2927    1
  4370  2927  3220    1
  4371  2927  2930    1
  4372  2928  2933    1
  4373  2928  2929    1
  4374  2929  2930    1
  4375  2930  2931    1
  4376  2931  3224    1
  4377  2931  2934    1
  4378  2932  2937    1
  4379  2932  2933    1
  4380  2933  2934    1
  4381  2934  2935    1
  4382  2935  3228    1
  4383  2935  2938    1
  4384  2936  2941    1
  4385  2936  2937    1
  4386  2937  2938    1
  4387  2938  2939    1
  4388  2939  3232    1
  4389  2939  2942    1
  4390  2940  2941    1
  4391  2940  2945    1
  4392  2941  2942    1
  4393  2942  2943    1
  4394  2943  3236    1
  4395  2943  2946    1
  4396  2944  2945    1
  4397  2944  2949    1
  4398  2945  2946    1
  4399  2946  2947    1
  4400  2947  3240    1
  4401  2947  2950    1
  4402  2948  2953    1
  4403  2948  2949    1
  4404  2949  2950    1
  4405  2950  2951    1
  4406  2951  3244    1
  4407  2951  2954    1
  4408  2952  2957    1
  4409  2952  2953    1
  4410  2953  2954    1
  4411  2954  2955    1
  4412  2955  3248    1
  4413  2955  2958    1
  4414  2956  2957    1
  4415  2957  2958    1
  4416  2958  2959    1
  4417  2959  3252    1
  4418  2960  2961    1
  4419  2960  2965    1
  4420  2961  2962    1
  4421  2962  2963    1
  4422  2963  3256    1
  4423  2963  2966    1
  4424  2964  2965    1
  4425  2964  2969    1
  4426  2965  2966    1
  4427  2966  2967    1
  4428  2967  3260    1
  4429  2967  2970    1
  4430  2968  2973    1
  4431  2968  2969    1
  4432  2969  2970    1
  4433  2970  2971    1
  4434  2971  3264    1
  4435  2971  2974    1
  4436  2972  2977    1
  4437  2972  2973    1
  4438  2973  2974    1
  4439  2974  2975    1
  4440  2975  3268    1
  4441  2975  2978    1
  4442  2976  2981    1
  4443  2976  2977    1
  4444  2977  2978    1
  4445  2978  2979    1
  4446  2979  3272    1
  4447  2979  2982    1
  4448  2980  2981    1
  4449  2980  2985    1
  4450  2981  2982    1
  4451  2982  2983    1
  4452  2983  3276    1
  4453  2983  2986    1
  4454  2984  2985    1
  4455  2984  2989    1
  4456  2985  2986    1
  4457  2986  2987    1
  4458  2987  3280    1
  4459  2987  2990    1
  4460  2988  2993    1
  4461  2988  2989    1
  4462  2989  2990    1
  4463  2990  2991    1
  4464  2991  3284    1
  4465  2991  2994    1
  4466  2992  2997    1
  4467  2992  2993    1
  4468  2993  2994    1
  4469  2994  2995    1
  4470  2995  2998    1
  4471  2995  3288    1
  4472  2996  3001    1
  4473  2996  2997    1
  4474  2997  2998    1
  4475  2998  2999    1
  4476  2999  3292    1
  4477  2999  3002    1
  4478  3000  3001    1
  4479  3000  3005    1
  4480  3001  3002    1
  4481  3002  3003    1
  4482  3003  3296    1
  4483  3003  3006    1
  4484  3004  3005    1
  4485  3004  3009    1
  4486  3005  3006    1
  4487  3006  3007    1
  4488  3007  3300    1
  4489  3007  3010    1
  4490  3008  3013    1
  4491  3008  3009    1
  4492  3009  3010    1
  4493  3010  3011    1
  4494  3011  3304    1
  4495  3011  3014    1
  4496  3012  3017    1
  4497  3012  3013    1
  4498  3013  3014    1
  4499  3014  3015    1
  4500  3015  3308    1
  4501  3015  3018    1
  4502  3016  3021    1
  4503  3016  3017    1
  4504  3017  3018    1
  4505  3018  3019    1
  4506  3019  3312    1
  4507  3019  3022    1
  4508  3020  3021    1
  4509  3020  3025    1
  4510  3021  3022    1
  4511  3022  3023    1
  4512  3023  3316    1
  4513  3023  3026    1
  4514  3024  3025    1
  4515  3024  3029    1
  4516  3025  3026    1
  4517  3026  3027    1
  4518  3027  3320    1
  4519  3027  3030    1
  4520  3028  3033    1
  4521  3028  3029    1
  4522  3029  3030    1
  4523  3030  3031    1
  4524  3031  3324    1
  4525  3031  3034    1
  4526  3032  3037    1
  4527  3032  3033    1
  4528  3033  3034    1
  4529  3034  3035    1
  4530  3035  3328    1
  4531  3035  3038    1
  4532  3036  3041    1
  4533  3036  3037    1
  4534  3037  3038    1
  4535  3038  3039    1
  4536  3039  3332    1
  4537  3039  3042    1
  4538  3040  3041    1
  4539  3040  3045    1
  4540  3041  3042    1
  4541  3042  3043    1
  4542  3043  3336    1
  4543  3043  3046    1
  4544  3044  3045    1
  4545  3044  3049    1
  4546  3045  3046    1
  4547  3046  3047    1
  4548  3047  3340    1
  4549  3047  3050    1
  4550  3048  3053    1
  4551  3048  3049    1
  4552  3049  3050    1
  4553  3050  3051    1
  4554  3051  3344    1
  4555  3051  3054    1
  4556  3052  3057    1
  4557  3052  3053    1
  4558  3053  3054    1
  4559  3054  3055    1
  4560  3055  3348    1
  4561  3055  3058    1
  4562  3056  3061    1
  4563  3056  3057    1
  4564  3057  3058    1
  4565  3058  3059    1
  4566  3059  3352    1
  4567  3059  3062    1
  4568  3060  3061    1
  4569  3060  3065    1
  4570  3061  3062    1
  4571  3062  3063    1
  4572  3063  3356    1
  4573  3063  3066    1
  4574  3064  3065    1
  4575  3064  3069    1
  4576  3065  3066    1
  4577  3066  3067    1
  4578  3067  3360    1
  4579  3067  3070    1
  4580  3068  3073    1
  4581  3068  3069    1
  4582  3069  3070    1
  4583  3070  3071    1
  4584  3071  3364    1
  4585  3071  3074    1
  4586  3072  3077    1
  4587  3072  3073    1
  4588  3073  3074    1
  4589  3074  3075    1
  4590  3075  3078    1
  4591  3075  3368    1
  4592  3076  3081    1
  4593  3076  3077    1
  4594  3077  3078    1
  4595  3078  3079    1
  4596  3079  3372    1
  4597  3079  3082    1
  4598  3080  3081    1
  4599  3080  3085    1
  4600  3081  3082    1
  4601  3082  3083    1
  4602  3083  3376    1
  4603  3083  3086    1
  4604  3084  3085    1
  4605  3084  3089    1
  4606  3085  3086    1
  4607  3086  3087    1
  4608  3087  3380    1
  4609  3087  3090    1
  4610  3088  3093    1
  4611  3088  3089    1
  4612  3089  3090    1
  4613  3090  3091    1
  4614  3091  3384    1
  4615  3091  3094    1
  4616  3092  3097    1
  4617  3092  3093    1
  4618  3093  3094    1
  4619  3094  3095    1
  4620  3095  3388    1
  4621  3095  3098    1
  4622  3096  3101    1
  4623  3096  3097    1
  4624  3097  3098    1
  4625  3098  3099    1
  4626  3099  3392    1
  4627  3099  3102    1
  4628  3100  3101    1
  4629  3100  3105    1
  4630  3101  3102    1
  4631  3102  3103    1
  4632  3103  3396    1
  4633  3103  3106    1
  4634  3104  3105    1
  4635  3104  3109    1
  4636  3105  3106    1
  4637  3106  3107    1
  4638  3107  3400    1
  4639  3107  3110    1
  4640  3108  3113    1
  4641  3108  3109    1
  4642  3109  3110    1
  4643  3110  3111    1
  4644  3111  3404    1
  4645  3111  3114    1
  4646  3112  3117    1
  4647  3112  3113    1
  4648  3113  3114    1
  4649  3114  3115    1
  4650  3115  3408    1
  4651  3115  3118    1
  4652  3116  3121    1
  4653  3116  3117    1
  4654  3117  3118    1
  4655  3118  3119    1
  4656  3119  3412    1
  4657  3119  3122    1
  4658  3120  3121    1
  4659  3120  3125    1
  4660  3121  3122    1
  4661  3122  3123    1
  4662  3123  3416    1
  4663  3123  3126    1
  4664  3124  3125    1
  4665  3124  3129    1
  4666  3125  3126    1
  4667  3126  3127    1
  4668  3127  3420    1
  4669  3127  3130    1
  4670  3128  3133    1
  4671  3128  3129    1
  4672  3129  3130    1
  4673  3130  3131    1
  4674  3131  3424    1
  4675  3131  3134    1
  4676  3132  3137    1
  4677  3132  3133    1
  4678  3133  3134    1
  4679  3134  3135    1
  4680  3135  3428    1
  4681  3135  3138    1
  4682  3136  3141    1
  4683  3136  3137    1
  4684  3137  3138    1
  4685  3138  3139    1
  4686  3139  3432    1
  4687  3139  3142    1
  4688  3140  3141    1
  4689  3140  3145    1
  4690  3141  3142    1
  4691  3142  3143    1
  4692  3143  3436    1
  4693  3143  3146    1
  4694  3144  3145    1
  4695  3144  3149    1
  4696  3145  3146    1
  4697  3146  3147    1
  4698  3147  3440    1
  4699  3147  3150    1
  4700  3148  3153    1
  4701  3148  3149    1
  4702  3149  3150    1
  4703  3150  3151    1
  4704  3151  3444    1
  4705  3151  3154    1
  4706  3152  3157    1
  4707  3152  3153    1
  4708  3153  3154    1
  4709  3154  3155    1
  4710  3155  3158    1
  4711  3155  3448    1
  4712  3156  3161    1
  4713  3156  3157    1
  4714  3157  3158    1
  4715  3158  3159    1
  4716  3159  3452    1
  4717  3159  3162    1
  4718  3160  3161    1
  4719  3160  3165    1
  4720  3161  3162    1
  4721  3162  3163    1
  4722  3163  3456    1
  4723  3163  3166    1
  4724  3164  3169    1
  4725  3164  3165    1
  4726  3165  3166    1
  4727  3166  3167    1
  4728  3167  3460    1
  4729  3167  3170    1
  4730  3168  3173    1
  4731  3168  3169    1
  4732  3169  3170    1
  4733  3170  3171    1
  4734  3171  3464    1
  4735  3171  3174    1
  4736  3172  3177    1
  4737  3172  3173    1
  4738  3173  3174    1
  4739  3174  3175    1
  4740  3175  3468    1
  4741  3175  3178    1
  4742  3176  3177    1
  4743  3176  3181    1
  4744  3177  3178    1
  4745  3178  3179    1
  4746  3179  3472    1
  4747  3179  3182    1
  4748  3180  3181    1
  4749  3180  3185    1
  4750  3181  3182    1
  4751  3182  3183    1
  4752  3183  3476    1
  4753  3183  3186    1
  4754  3184  3189    1
  4755  3184  3185    1
  4756  3185  3186    1
  4757  3186  3187    1
  4758  3187  3480    1
  4759  3187  3190    1
  4760  3188  3193    1
  4761  3188  3189    1
  4762  3189  3190    1
  4763  3190  3191    1
  4764  3191  3484    1
  4765  3191  3194    1
  4766  3192  3197    1
  4767  3192  3193    1
  4768  3193  3194    1
  4769  3194  3195    1
  4770  3195  3488    1
  4771  3195  3198    1
  4772  3196  3197    1
  4773  3196  3201    1
  4774  3197  3198    1
  4775  3198  3199    1
  4776  3199  3492    1
  4777  3199  3202    1
  4778  3200  3201    1
  4779  3200  3205    1
  4780  3201  3202    1
  4781  3202  3203    1
  4782  3203  3496    1
  4783  3203  3206    1
  4784  3204  3209    1
  4785  3204  3205    1
  4786  3205  3206    1
  4787  3206  3207    1
  4788  3207  3210    1
  4789  3207  3500    1
  4790  3208  3213    1
  4791  3208  3209    1
  4792  3209  3210    1
  4793  3210  3211    1
  4794  3211  3504    1
  4795  3211  3214    1
  4796  3212  3217    1
  4797  3212  3213    1
  4798  3213  3214    1
  4799  3214  3215    1
  4800  3215  3508    1
  4801  3215  3218    1
  4802  3216  3217    1
  4803  3216  3221    1
  4804  3217  3218    1
  4805  3218  3219    1
  4806  3219  3512    1
  4807  3219  3222    1
  4808  3220  3221    1
  4809  3220  3225    1
  4810  3221  3222    1
  4811  3222  3223    1
  4812  3223  3516    1
  4813  3223  3226    1
  4814  3224  3229    1
  4815  3224  3225    1
  4816  3225  3226    1
  4817  3226  3227    1
  4818  3227  3520    1
  4819  3227  3230    1
  4820  3228  3233    1
  4821  3228  3229    1
  4822  3229  3230    1
  4823  3230  3231    1
  4824  3231  3524    1
  4825  3231  3234    1
  4826  3232  3237    1
  4827  3232  3233    1
  4828  3233  3234    1
  4829  3234  3235    1
  4830  3235  3528    1
  4831  3235  3238    1
  4832  3236  3237    1
  4833  3236  3241    1
  4834  3237  3238    1
  4835  3238  3239    1
  4836  3239  3532    1
  4837  3239  3242    1
  4838  3240  3241    1
  4839  3240  3245    1
  4840  3241  3242    1
  4841  3242  3243    1
  4842  3243  3536    1
  4843  3243  3246    1
  4844  3244  3249    1
  4845  3244  3245    1
  4846  3245  3246    1
  4847  3246  3247    1
  4848  3247  3540    1
  4849  3247  3250    1
  4850  3248  3253    1
  4851  3248  3249    1
  4852  3249  3250    1
  4853  3250  3251    1
  4854  3251  3544    1
  4855  3251  3254    1
  4856  3252  3253    1
  4857  3253  3254    1
  4858  3254  3255    1
  4859  3255  3548    1
  4860  3256  3257    1
  4861  3256  3261    1
  4862  3257  3258    1
  4863  3258  3259    1
  4864  3259  3552    1
  4865  3259  3262    1
  4866  3260  3261    1
  4867  3260  3265    1
  4868  3261  3262    1
  4869  3262  3263    1
  4870  3263  3556    1
  4871  3263  3266    1
  4872  3264  3269    1
  4873  3264  3265    1
  4874  3265  3266    1
  4875  3266  3267    1
  4876  3267  3560    1
  4877  3267  3270    1
  4878  3268  3273    1
  4879  3268  3269    1
  4880  3269  3270    1
  4881  3270  3271    1
  4882  3271  3564    1
  4883  3271  3274    1
  4884  3272  3277    1
  4885  3272  3273    1
  4886  3273  3274    1
  4887  3274  3275    1
  4888  3275  3568    1
  4889  3275  3278    1
  4890  3276  3277    1
  4891  3276  3281    1
  4892  3277  3278    1
  4893  3278  3279    1
  4894  3279  3572    1
  4895  3279  3282    1
  4896  3280  3281    1
  4897  3280  3285    1
  4898  3281  3282    1
  4899  3282  3283    1
  4900  3283  3576    1
  4901  3283  3286    1
  4902  3284  3289    1
  4903  3284  3285    1
  4904  3285  3286    1
  4905  3286  3287    1
  4906  3287  3580    1
  4907  3287  3290    1
  4908  3288  3293    1
  4909  3288  3289    1
  4910  3289  3290    1
  4911  3290  3291    1
  4912  3291  3584    1
  4913  3291  3294    1
  4914  3292  3297    1
  4915  3292  3293    1
  4916  3293  3294    1
  4917  3294  3295    1
  4918  3295  3588    1
  4919  3295  3298    1
  4920  3296  3297    1
  4921  3296  3301    1
  4922  3297  3298    1
  4923  3298  3299    1
  4924  3299  3592    1
  4925  3299  3302    1
  4926  3300  3301    1
  4927  3300  3305    1
  4928  3301  3302    1
  4929  3302  3303    1
  4930  3303  3596    1
  4931  3303  3306    1
  4932  3304  3309    1
  4933  3304  3305    1
  4934  3305  3306    1
  4935  3306  3307    1
  4936  3307  3600    1
  4937  3307  3310    1
  4938  3308  3313    1
  4939  3308  3309    1
  4940  3309  3310    1
  4941  3310  3311    1
  4942  3311  3314    1
  4943  3311  3604    1
  4944  3312  3317    1
  4945  3312  3313    1
  4946  3313  3314    1
  4947  3314  3315    1
  4948  3315  3608    1
  4949  3315  3318    1
  4950  3316  3317    1
  4951  3316  3321    1
  4952  3317  3318    1
  4953  3318  3319    1
  4954  3319  3612    1
  4955  3319  3322    1
  4956  3320  3321    1
  4957  3320  3325    1
  4958  3321  3322    1
  4959  3322  3323    1
  4960  3323  3616    1
  4961  3323  3326    1
  4962  3324  3329    1
  4963  3324  3325    1
  4964  3325  3326    1
  4965  3326  3327    1
  4966  3327  3620    1
  4967  3327  3330    1
  4968  3328  3333    1
  4969  3328  3329    1
  4970  3329  3330    1
  4971  3330  3331    1
  4972  3331  3624    1
  4973  3331  3334    1
  4974  3332  3337    1
  4975  3332  3333    1
  4976  3333  3334    1
  4977  3334  3335    1
  4978  3335  3628    1
  4979  3335  3338    1
  4980  3336  3337    1
  4981  3336  3341    1
  4982  3337  3338    1
  4983  3338  3339    1
  4984  3339  3632    1
  4985  3339  3342    1
  4986  3340  3341    1
  4987  3340  3345    1
  4988  3341  3342    1
  4989  3342  3343    1
  4990  3343  3636    1
  4991  3343  3346    1
  4992  3344  3349    1
  4993  3344  3345    1
  4994  3345  3346    1
  4995  3346  3347    1
  4996  3347  3640    1
  4997  3347  3350    1
  4998  3348  3353    1
  4999  3348  3349    1
  5000  3349  3350    1
  5001  3350  3351    1
  5002  3351  3644    1
  5003  3351  3354    1
  5004  3352  3357    1
  5005  3352  3353    1
  5006  3353  3354    1
  5007  3354  3355    1
  5008  3355  3648    1
  5009  3355  3358    1
  5010  3356  3357    1
  5011  3356  3361    1
  5012  3357  3358    1
  5013  3358  3359    1
  5014  3359  3652    1
  5015  3359  3362    1
  5016  3360  3361    1
  5017  3360  3365    1
  5018  3361  3362    1
  5019  3362  3363    1
  5020  3363  3656    1
  5021  3363  3366    1
  5022  3364  3369    1
  5023  3364  3365    1
  5024  3365  3366    1
  5025  3366  3367    1
  5026  3367  3660    1
  5027  3367  3370    1
  5028  3368  3373    1
  5029  3368  3369    1
  5030  3369  3370    1
  5031  3370  3371    1
  5032  3371  3664    1
  5033  3371  3374    1
  5034  3372  3377    1
  5035  3372  3373    1
  5036  3373  3374    1
  5037  3374  3375    1
  5038  3375  3668    1
  5039  3375  3378    1
  5040  3376  3377    1
  5041  3376  3381    1
  5042  3377  3378    1
  5043  3378  3379    1
  5044  3379  3672    1
  5045  3379  3382    1
  5046  3380  3381    1
  5047  3380  3385    1
  5048  3381  3382    1
  5049  3382  3383    1
  5050  3383  3676    1
  5051  3383  3386    1
  5052  3384  3389    1
  5053  3384  3385    1
  5054  3385  3386    1
  5055  3386  3387    1
  5056  3387  3680    1
  5057  3387  3390    1
  5058  3388  3393    1
  5059  3388  3389    1
  5060  3389  3390    1
  5061  3390  3391    1
  5062  3391  3394    1
  5063  3391  3684    1
  5064  3392  3397    1
  5065  3392  3393    1
  5066  3393  3394    1
  5067  3394  3395    1
  5068  3395  3688    1
  5069  3395  3398    1
  5070  3396  3397    1
  5071  3396  3401    1
  5072  3397  3398    1
  5073  3398  3399    1
  5074  3399  3692    1
  5075  3399  3402    1
  5076  3400  3401    1
  5077  3400  3405    1
  5078  3401  3402    1
  5079  3402  3403    1
  5080  3403  3696    1
  5081  3403  3406    1
  5082  3404  3409    1
  5083  3404  3405    1
  5084  3405  3406    1
  5085  3406  3407    1
  5086  3407  3700    1
  5087  3407  3410    1
  5088  3408  3413    1
  5089  3408  3409    1
  5090  3409  3410    1
  5091  3410  3411    1
  5092  3411  3704    1
  5093  3411  3414    1
  5094  3412  3417    1
  5095  3412  3413    1
  5096  3413  3414    1
  5097  3414  3415    1
  5098  3415  3708    1
  5099  3415  3418    1
  5100  3416  3417    1
  5101  3416  3421    1
  5102  3417  3418    1
  5103  3418  3419    1
  5104  3419  3712    1
  5105  3419  3422    1
  5106  3420  3421    1
  5107  3420  3425    1
  5108  3421  3422    1
  5109  3422  3423    1
  5110  3423  3716    1
  5111  3423  3426    1
  5112  3424  3429    1
  5113  3424  3425    1
  5114  3425  3426    1
  5115  3426  3427    1
  5116  3427  3720    1
  5117  3427  3430    1
  5118  3428  3433    1
  5119  3428  3429    1
  5120  3429  3430    1
  5121  3430  3431    1
  5122  3431  3724    1
  5123  3431  3434    1
  5124  3432  3437    1
  5125  3432  3433    1
  5126  3433  3434    1
  5127  3434  3435    1
  5128  3435  3728    1
  5129  3435  3438    1
  5130  3436  3437    1
  5131  3436  3441    1
  5132  3437  3438    1
  5133  3438  3439    1
  5134  3439  3732    1
  5135  3439  3442    1
  5136  3440  3441    1
  5137  3440  3445    1
  5138  3441  3442    1
  5139  3442  3443    1
  5140  3443  3736    1
  5141  3443  3446    1
  5142  3444  3449    1
  5143  3444  3445    1
  5144  3445  3446    1
  5145  3446  3447    1
  5146  3447  3740    1
  5147  3447  3450    1
  5148  3448  3453    1
  5149  3448  3449    1
  5150  3449  3450    1
  5151  3450  3451    1
  5152  3451  3744    1
  5153  3451  3454    1
  5154  3452  3457    1
  5155  3452  3453    1
  5156  3453  3454    1
  5157  3454  3455    1
  5158  3455  3748    1
  5159  3455  3458    1
  5160  3456  3457    1
  5161  3456  3461    1
  5162  3457  3458    1
  5163  3458  3459    1
  5164  3459  3752    1
  5165  3459  3462    1
  5166  3460  3465    1
  5167  3460  3461    1
  5168  3461  3462    1
  5169  3462  3463    1
  5170  3463  3756    1
  5171  3463  3466    1
  5172  3464  3469    1
  5173  3464  3465    1
  5174  3465  3466    1
  5175  3466  3467    1
  5176  3467  3760    1
  5177  3467  3470    1
  5178  3468  3473    1
  5179  3468  3469    1
  5180  3469  3470    1
  5181  3470  3471    1
  5182  3471  3764    1
  5183  3471  3474    1
  5184  3472  3473    1
  5185  3472  3477    1
  5186  3473  3474    1
  5187  3474  3475    1
  5188  3475  3768    1
  5189  3475  3478    1
  5190  3476  3477    1
  5191  3476  3481    1
  5192  3477  3478    1
  5193  3478  3479    1
  5194  3479  3772    1
  5195  3479  3482    1
  5196  3480  3485    1
  5197  3480  3481    1
  5198  3481  3482    1
  5199  3482  3483    1
  5200  3483  3776    1
  5201  3483  3486    1
  5202  3484  3489    1
  5203  3484  3485    1
  5204  3485  3486    1
  5205  3486  3487    1
  5206  3487  3780    1
  5207  3487  3490    1
  5208  3488  3493    1
  5209  3488  3489    1
  5210  3489  3490    1
  5211  3490  3491    1
  5212  3491  3784    1
  5213  3491  3494    1
  5214  3492  3493    1
  5215  3492  3497    1
  5216  3493  3494    1
  5217  3494  3495    1
  5218  3495  3788    1
  5219  3495  3498    1
  5220  3496  3497    1
  5221  3496  3501    1
  5222  3497  3498    1
  5223  3498  3499    1
  5224  3499  3792    1
  5225  3499  3502    1
  5226  3500  3505    1
  5227  3500  3501    1
  5228  3501  3502    1
  5229  3502  3503    1
  5230  3503  3796    1
  5231  3503  3506    1
  5232  3504  3509    1
  5233  3504  3505    1
  5234  3505  3506    1
  5235  3506  3507    1
  5236  3507  3800    1
  5237  3507  3510    1
  5238  3508  3513    1
  5239  3508  3509    1
  5240  3509  3510    1
  5241  3510  3511    1
  5242  3511  3804    1
  5243  3511  3514    1
  5244  3512  3513    1
  5245  3512  3517    1
  5246  3513  3514    1
  5247  3514  3515    1
  5248  3515  3808    1
  5249  3515  3518    1
  5250  3516  3517    1
  5251  3516  3521    1
  5252  3517  3518    1
  5253  3518  3519    1
  5254  3519  3812    1
  5255  3519  3522    1
  5256  3520  3525    1
  5257  3520  3521    1
  5258  3521  3522    1
  5259  3522  3523    1
  5260  3523  3526    1
  5261  3523  3816    1
  5262  3524  3529    1
  5263  3524  3525    1
  5264  3525  3526    1
  5265  3526  3527    1
  5266  3527  3820    1
  5267  3527  3530    1
  5268  3528  3533    1
  5269  3528  3529    1
  5270  3529  3530    1
  5271  3530  3531    1
  5272  3531  3824    1
  5273  3531  3534    1
  5274  3532  3533    1
  5275  3532  3537    1
  5276  3533  3534    1
  5277  3534  3535    1
  5278  3535  3828    1
  5279  3535  3538    1
  5280  3536  3537    1
  5281  3536  3541    1
  5282  3537  3538    1
  5283  3538  3539    1
  5284  3539  3832    1
  5285  3539  3542    1
  5286  3540  3545    1
  5287  3540  3541    1
  5288  3541  3542    1
  5289  3542  3543    1
  5290  3543  3836    1
  5291  3543  3546    1
  5292  3544  3549    1
  5293  3544  3545    1
  5294  3545  3546    1
  5295  3546  3547    1
  5296  3547  3840    1
  5297  3547  3550    1
  5298  3548  3549    1
  5299  3549  3550    1
  5300  3550  3551    1
  5301  3551  3844    1
  5302  3552  3553    1
  5303  3552  3557    1
  5304  3553  3554    1
  5305  3554  3555    1
  5306  3555  3558    1
  5307  3555  3848    1
  5308  3556  3557    1
  5309  3556  3561    1
  5310  3557  3558    1
  5311  3558  3559    1
  5312  3559  3562    1
  5313  3559  3852    1
  5314  3560  3565    1
  5315  3560  3561    1
  5316  3561  3562    1
  5317  3562  3563    1
  5318  3563  3566    1
  5319  3563  3856    1
  5320  3564  3569    1
  5321  3564  3565    1
  5322  3565  3566    1
  5323  3566  3567    1
  5324  3567  3570    1
  5325  3567  3860    1
  5326  3568  3573    1
  5327  3568  3569    1
  5328  3569  3570    1
  5329  3570  3571    1
  5330  3571  3574    1
  5331  3571  3864    1
  5332  3572  3573    1
  5333  3572  3577    1
  5334  3573  3574    1
  5335  3574  3575    1
  5336  3575  3578    1
  5337  3575  3868    1
  5338  3576  3577    1
  5339  3576  3581    1
  5340  3577  3578    1
  5341  3578  3579    1
  5342  3579  3582    1
  5343  3579  3872    1
  5344  3580  3585    1
  5345  3580  3581    1
  5346  3581  3582    1
  5347  3582  3583    1
  5348  3583  3586    1
  5349  3583  3876    1
  5350  3584  3589    1
  5351  3584  3585    1
  5352  3585  3586    1
  5353  3586  3587    1
  5354  3587  3590    1
  5355  3587  3880    1
  5356  3588  3593    1
  5357  3588  3589    1
  5358  3589  3590    1
  5359  3590  3591    1
  5360  3591  3594    1
  5361  3591  3884    1
  5362  3592  3593    1
  5363  3592  3597    1
  5364  3593  3594    1
  5365  3594  3595    1
  5366  3595  3598    1
  5367  3595  3888    1
  5368  3596  3597    1
  5369  3596  3601    1
  5370  3597  3598    1
  5371  3598  3599    1
  5372  3599  3602    1
  5373  3599  3892    1
  5374  3600  3601    1
  5375  3600  3605    1
  5376  3601  3602    1
  5377  3602  3603    1
  5378  3603  3606    1
  5379  3603  3896    1
  5380  3604  3609    1
  5381  3604  3605    1
  5382  3605  3606    1
  5383  3606  3607    1
  5384  3607  3610    1
  5385  3607  3900    1
  5386  3608  3613    1
  5387  3608  3609    1
  5388  3609  3610    1
  5389  3610  3611    1
  5390  3611  3614    1
  5391  3611  3904    1
  5392  3612  3613    1
  5393  3612  3617    1
  5394  3613  3614    1
  5395  3614  3615    1
  5396  3615  3618    1
  5397  3615  3908    1
  5398  3616  3617    1
  5399  3616  3621    1
  5400  3617  3618    1
  5401  3618  3619    1
  5402  3619  3622    1
  5403  3619  3912    1
  5404  3620  3625    1
  5405  3620  3621    1
  5406  3621  3622    1
  5407  3622  3623    1
  5408  3623  3626    1
  5409  3623  3916    1
  5410  3624  3629    1
  5411  3624  3625    1
  5412  3625  3626    1
  5413  3626  3627    1
  5414  3627  3630    1
  5415  3627  3920    1
  5416  3628  3629    1
  5417  3628  3633    1
  5418  3629  3630    1
  5419  3630  3631    1
  5420  3631  3634    1
  5421  3631  3924    1
  5422  3632  3633    1
  5423  3632  3637    1
  5424  3633  3634    1
  5425  3634  3635    1
  5426  3635  3638    1
  5427  3635  3928    1
  5428  3636  3637    1
  5429  3636  3641    1
  5430  3637  3638    1
  5431  3638  3639    1
  5432  3639  3642    1
  5433  3639  3932    1
  5434  3640  3645    1
  5435  3640  3641    1
  5436  3641  3642    1
  5437  3642  3643    1
  5438  3643  3646    1
  5439  3643  3936    1
  5440  3644  3649    1
  5441  3644  3645    1
  5442  3645  3646    1
  5443  3646  3647    1
  5444  3647  3650    1
  5445  3647  3940    1
  5446  3648  3653    1
  5447  3648  3649    1
  5448  3649  3650    1
  5449  3650  3651    1
  5450  3651  3654    1
  5451  3651  3944    1
  5452  3652  3653    1
  5453  3652  3657    1
  5454  3653  3654    1
  5455  3654  3655    1
  5456  3655  3658    1
  5457  3655  3948    1
  5458  3656  3657    1
  5459  3656  3661    1
  5460  3657  3658    1
  5461  3658  3659    1
  5462  3659  3662    1
  5463  3659  3952    1
  5464  3660  3665    1
  5465  3660  3661    1
  5466  3661  3662    1
  5467  3662  3663    1
  5468  3663  3666    1
  5469  3663  3956    1
  5470  3664  3669    1
  5471  3664  3665    1
  5472  3665  3666    1
  5473  3666  3667    1
  5474  3667  3670    1
  5475  3667  3960    1
  5476  3668  3673    1
  5477  3668  3669    1
  5478  3669  3670    1
  5479  3670  3671    1
  5480  3671  3674    1
  5481  3671  3964    1
  5482  3672  3673    1
  5483  3672  3677    1
  5484  3673  3674    1
  5485  3674  3675    1
  5486  3675  3678    1
  5487  3675  3968    1
  5488  3676  3677    1
  5489  3676  3681    1
  5490  3677  3678    1
  5491  3678  3679    1
  5492  3679  3682    1
  5493  3679  3972    1
  5494  3680  3681    1
  5495  3680  3685    1
  5496  3681  3682    1
  5497  3682  3683    1
  5498  3683  3686    1
  5499  3683  3976    1
  5500  3684  3689    1
  5501  3684  3685    1
  5502  3685  3686    1
  5503  3686  3687    1
  5504  3687  3690    1
  5505  3687  3980    1
  5506  3688  3693    1
  5507  3688  3689    1
  5508  3689  3690    1
  5509  3690  3691    1
  5510  3691  3694    1
  5511  3691  3984    1
  5512  3692  3693    1
  5513  3692  3697    1
  5514  3693  3694    1
  5515  3694  3695    1
  5516  3695  3698    1
  5517  3695  3988    1
  5518  3696  3697    1
  5519  3696  3701    1
  5520  3697  3698    1
  5521  3698  3699    1
  5522  3699  3702    1
  5523  3699  3992    1
  5524  3700  3705    1
  5525  3700  3701    1
  5526  3701  3702    1
  5527  3702  3703    1
  5528  3703  3706    1
  5529  3703  3996    1
  5530  3704  3709    1
  5531  3704  3705    1
  5532  3705  3706    1
  5533  3706  3707    1
  5534  3707  3710    1
  5535  3707  4000    1
  5536  3708  3709    1
  5537  3708  3713    1
  5538  3709  3710    1
  5539  3710  3711    1
  5540  3711  3714    1
  5541  3711  4004    1
  5542  3712  3713    1
  5543  3712  3717    1
  5544  3713  3714    1
  5545  3714  3715    1
  5546  3715  3718    1
  5547  3715  4008    1
  5548  3716  3717    1
  5549  3716  3721    1
  5550  3717  3718    1
  5551  3718  3719    1
  5552  3719  3722    1
  5553  3719  4012    1
  5554  3720  3725    1
  5555  3720  3721    1
  5556  3721  3722    1
  5557  3722  3723    1
  5558  3723  3726    1
  5559  3723  4016    1
  5560  3724  3729    1
  5561  3724  3725    1
  5562  3725  3726    1
  5563  3726  3727    1
  5564  3727  3730    1
  5565  3727  4020    1
  5566  3728  3733    1
  5567  3728  3729    1
  5568  3729  3730    1
  5569  3730  3731    1
  5570  3731  3734    1
  5571  3731  4024    1
  5572  3732  3733    1
  5573  3732  3737    1
  5574  3733  3734    1
  5575  3734  3735    1
  5576  3735  3738    1
  5577  3735  4028    1
  5578  3736  3737    1
  5579  3736  3741    1
  5580  3737  3738    1
  5581  3738  3739    1
  5582  3739  3742    1
  5583  3739  4032    1
  5584  3740  3745    1
  5585  3740  3741    1
  5586  3741  3742    1
  5587  3742  3743    1
  5588  3743  3746    1
  5589  3743  4036    1
  5590  3744  3749    1
  5591  3744  3745    1
  5592  3745  3746    1
  5593  3746  3747    1
  5594  3747  3750    1
  5595  3747  4040    1
  5596  3748  3753    1
  5597  3748  3749    1
  5598  3749  3750    1
  5599  3750  3751    1
  5600  3751  3754    1
  5601  3751  4044    1
  5602  3752  3753    1
  5603  3752  3757    1
  5604  3753  3754    1
  5605  3754  3755    1
  5606  3755  3758    1
  5607  3755  4048    1
  5608  3756  3761    1
  5609  3756  3757    1
  5610  3757  3758    1
  5611  3758  3759    1
  5612  3759  3762    1
  5613  3759  4052    1
  5614  3760  3761    1
  5615  3760  3765    1
  5616  3761  3762    1
  5617  3762  3763    1
  5618  3763  3766    1
  5619  3763  4056    1
  5620  3764  3769    1
  5621  3764  3765    1
  5622  3765  3766    1
  5623  3766  3767    1
  5624  3767  3770    1
  5625  3767  4060    1
  5626  3768  3769    1
  5627  3768  3773    1
  5628  3769  3770    1
  5629  3770  3771    1
  5630  3771  3774    1
  5631  3771  4064    1
  5632  3772  3773    1
  5633  3772  3777    1
  5634  3773  3774    1
  5635  3774  3775    1
  5636  3775  3778    1
  5637  3775  4068    1
  5638  3776  3781    1
  5639  3776  3777    1
  5640  3777  3778    1
  5641  3778  3779    1
  5642  3779  3782    1
  5643  3779  4072    1
  5644  3780  3785    1
  5645  3780  3781    1
  5646  3781  3782    1
  5647  3782  3783    1
  5648  3783  3786    1
  5649  3783  4076    1
  5650  3784  3789    1
  5651  3784  3785    1
  5652  3785  3786    1
  5653  3786  3787    1
  5654  3787  3790    1
  5655  3787  4080    1
  5656  3788  3789    1
  5657  3788  3793    1
  5658  3789  3790    1
  5659  3790  3791    1
  5660  3791  3794    1
  5661  3791  4084    1
  5662  3792  3793    1
  5663  3792  3797    1
  5664  3793  3794    1
  5665  3794  3795    1
  5666  3795  3798    1
  5667  3795  4088    1
  5668  3796  3801    1
  5669  3796  3797    1
  5670  3797  3798    1
  5671  3798  3799    1
  5672  3799  3802    1
  5673  3799  4092    1
  5674  3800  3805    1
  5675  3800  3801    1
  5676  3801  3802    1
  5677  3802  3803    1
  5678  3803  3806    1
  5679  3803  4096    1
  5680  3804  3809    1
  5681  3804  3805    1
  5682  3805  3806    1
  5683  3806  3807    1
  5684  3807  3810    1
  5685  3807  4100    1
  5686  3808  3809    1
  5687  3808  3813    1
  5688  3809  3810    1
  5689  3810  3811    1
  5690  3811  3814    1
  5691  3811  4104    1
  5692  3812  3813    1
  5693  3812  3817    1
  5694  3813  3814    1
  5695  3814  3815    1
  5696  3815  3818    1
  5697  3815  4108    1
  5698  3816  3821    1
  5699  3816  3817    1
  5700  3817  3818    1
  5701  3818  3819    1
  5702  3819  3822    1
  5703  3819  4112    1
  5704  3820  3825    1
  5705  3820  3821    1
  5706  3821  3822    1
  5707  3822  3823    1
  5708  3823  3826    1
  5709  3823  4116    1
  5710  3824  3829    1
  5711  3824  3825    1
  5712  3825  3826    1
  5713  3826  3827    1
  5714  3827  3830    1
  5715  3827  4120    1
  5716  3828  3829    1
  5717  3828  3833    1
  5718  3829  3830    1
  5719  3830  3831    1
  5720  3831  3834    1
  5721  3831  4124    1
  5722  3832  3833    1
  5723  3832  3837    1
  5724  3833  3834    1
  5725  3834  3835    1
  5726  3835  3838    1
  5727  3835  4128    1
  5728  3836  3841    1
  5729  3836  3837    1
  5730  3837  3838    1
  5731  3838  3839    1
  5732  3839  3842    1
  5733  3839  4132    1
  5734  3840  3841    1
  5735  3840  3845    1
  5736  3841  3842    1
  5737  3842  3843    1
  5738  3843  3846    1
  5739  3843  4136    1
  5740  3844  3845    1
  5741  3845  3846    1
  5742  3846  3847    1
  5743  3847  4140    1
  5744  3848  3849    1
  5745  3848  3853    1
  5746  3849  3850    1
  5747  3850  3851    1
  5748  3851  3854    1
  5749  3851  4144    1
  5750  3852  3853    1
  5751  3852  3857    1
  5752  3853  3854    1
  5753  3854  3855    1
  5754  3855  3858    1
  5755  3855  4148    1
  5756  3856  3861    1
  5757  3856  3857    1
  5758  3857  3858    1
  5759  3858  3859    1
  5760  3859  3862    1
  5761  3859  4152    1
  5762  3860  3865    1
  5763  3860  3861    1
  5764  3861  3862    1
  5765  3862  3863    1
  5766  3863  3866    1
  5767  3863  4156    1
  5768  3864  3865    1
  5769  3864  3869    1
  5770  3865  3866    1
  5771  3866  3867    1
  5772  3867  3870    1
  5773  3867  4160    1
  5774  3868  3869    1
  5775  3868  3873    1
  5776  3869  3870    1
  5777  3870  3871    1
  5778  3871  3874    1
  5779  3871  4164    1
  5780  3872  3873    1
  5781  3872  3877    1
  5782  3873  3874    1
  5783  3874  3875    1
  5784  3875  3878    1
  5785  3875  4168    1
  5786  3876  3881    1
  5787  3876  3877    1
  5788  3877  3878    1
  5789  3878  3879    1
  5790  3879  3882    1
  5791  3879  4172    1
  5792  3880  3885    1
  5793  3880  3881    1
  5794  3881  3882    1
  5795  3882  3883    1
  5796  3883  3886    1
  5797  3883  4176    1
  5798  3884  3889    1
  5799  3884  3885    1
  5800  3885  3886    1
  5801  3886  3887    1
  5802  3887  3890    1
  5803  3887  4180    1
  5804  3888  3889    1
  5805  3888  3893    1
  5806  3889  3890    1
  5807  3890  3891    1
  5808  3891  3894    1
  5809  3891  4184    1
  5810  3892  3893    1
  5811  3892  3897    1
  5812  3893  3894    1
  5813  3894  3895    1
  5814  3895  3898    1
  5815  3895  4188    1
  5816  3896  3901    1
  5817  3896  3897    1
  5818  3897  3898    1
  5819  3898  3899    1
  5820  3899  3902    1
  5821  3899  4192    1
  5822  3900  3905    1
  5823  3900  3901    1
  5824  3901  3902    1
  5825  3902  3903    1
  5826  3903  3906    1
  5827  3903  4196    1
  5828  3904  3909    1
  5829  3904  3905    1
  5830  3905  3906    1
  5831  3906  3907    1
  5832  3907  3910    1
  5833  3907  4200    1
  5834  3908  3909    1
  5835  3908  3913    1
  5836  3909  3910    1
  5837  3910  3911    1
  5838  3911  3914    1
  5839  3911  4204    1
  5840  3912  3913    1
  5841  3912  3917    1
  5842  3913  3914    1
  5843  3914  3915    1
  5844  3915  3918    1
  5845  3915  4208    1
  5846  3916  3917    1
  5847  3916  3921    1
  5848  3917  3918    1
  5849  3918  3919    1
  5850  3919  3922    1
  5851  3919  4212    1
  5852  3920  3925    1
  5853  3920  3921    1
  5854  3921  3922    1
  5855  3922  3923    1
  5856  3923  3926    1
  5857  3923  4216    1
  5858  3924  3929    1
  5859  3924  3925    1
  5860  3925  3926    1
  5861  3926  3927    1
  5862  3927  3930    1
  5863  3927  4220    1
  5864  3928  3929    1
  5865  3928  3933    1
  5866  3929  3930    1
  5867  3930  3931    1
  5868  3931  3934    1
  5869  3931  4224    1
  5870  3932  3933    1
  5871  3932  3937    1
  5872  3933  3934    1
  5873  3934  3935    1
  5874  3935  3938    1
  5875  3935  4228    1
  5876  3936  3941    1
  5877  3936  3937    1
  5878  3937  3938    1
  5879  3938  3939    1
  5880  3939  3942    1
  5881  3939  4232    1
  5882  3940  3945    1
  5883  3940  3941    1
  5884  3941  3942    1
  5885  3942  3943    1
  5886  3943  3946    1
  5887  3943  4236    1
  5888  3944  3945    1
  5889  3944  3949    1
  5890  3945  3946    1
  5891  3946  3947    1
  5892  3947  3950    1
  5893  3947  4240    1
  5894  3948  3949    1
  5895  3948  3953    1
  5896  3949  3950    1
  5897  3950  3951    1
  5898  3951  3954    1
  5899  3951  4244    1
  5900  3952  3953    1
  5901  3952  3957    1
  5902  3953  3954    1
  5903  3954  3955    1
  5904  3955  3958    1
  5905  3955  4248    1
  5906  3956  3961    1
  5907  3956  3957    1
  5908  3957  3958    1
  5909  3958  3959    1
  5910  3959  3962    1
  5911  3959  4252    1
  5912  3960  3965    1
  5913  3960  3961    1
  5914  3961  3962    1
  5915  3962  3963    1
  5916  3963  3966    1
  5917  3963  4256    1
  5918  3964  3969    1
  5919  3964  3965    1
  5920  3965  3966    1
  5921  3966  3967    1
  5922  3967  3970    1
  5923  3967  4260    1
  5924  3968  3969    1
  5925  3968  3973    1
  5926  3969  3970    1
  5927  3970  3971    1
  5928  3971  3974    1
  5929  3971  4264    1
  5930  3972  3973    1
  5931  3972  3977    1
  5932  3973  3974    1
  5933  3974  3975    1
  5934  3975  3978    1
  5935  3975  4268    1
  5936  3976  3981    1
  5937  3976  3977    1
  5938  3977  3978    1
  5939  3978  3979    1
  5940  3979  3982    1
  5941  3979  4272    1
  5942  3980  3985    1
  5943  3980  3981    1
  5944  3981  3982    1
  5945  3982  3983    1
  5946  3983  3986    1
  5947  3983  4276    1
  5948  3984  3989    1
  5949  3984  3985    1
  5950  3985  3986    1
  5951  3986  3987    1
  5952  3987  3990    1
  5953  3987  4280    1
  5954  3988  3989    1
  5955  3988  3993    1
  5956  3989  3990    1
  5957  3990  3991    1
  5958  3991  3994    1
  5959  3991  4284    1
  5960  3992  3993    1
  5961  3992  3997    1
  5962  3993  3994    1
  5963  3994  3995    1
  5964  3995  3998    1
  5965  3995  4288    1
  5966  3996  3997    1
  5967  3996  4001    1
  5968  3997  3998    1
  5969  3998  3999    1
  5970  3999  4002    1
  5971  3999  4292    1
  5972  4000  4005    1
  5973  4000  4001    1
  5974  4001  4002    1
  5975  4002  4003    1
  5976  4003  4006    1
  5977  4003  4296    1
  5978  4004  4009    1
  5979  4004  4005    1
  5980  4005  4006    1
  5981  4006  4007    1
  5982  4007  4010    1
  5983  4007  4300    1
  5984  4008  4009    1
  5985  4008  4013    1
  5986  4009  4010    1
  5987  4010  4011    1
  5988  4011  4014    1
  5989  4011  4304    1
  5990  4012  4013    1
  5991  4012  4017    1
  5992  4013  4014    1
  5993  4014  4015    1
  5994  4015  4018    1
  5995  4015  4308    1
  5996  4016  4021    1
  5997  4016  4017    1
  5998  4017  4018    1
  5999  4018  4019    1
  6000  4019  4022    1
  6001  4019  4312    1
  6002  4020  4025    1
  6003  4020  4021    1
  6004  4021  4022    1
  6005  4022  4023    1
  6006  4023  4026    1
  6007  4023  4316    1
  6008  4024  4025    1
  6009  4024  4029    1
  6010  4025  4026    1
  6011  4026  4027    1
  6012  4027  4030    1
  6013  4027  4320    1
  6014  4028  4029    1
  6015  4028  4033    1
  6016  4029  4030    1
  6017  4030  4031    1
  6018  4031  4034    1
  6019  4031  4324    1
  6020  4032  4033    1
  6021  4032  4037    1
  6022  4033  4034    1
  6023  4034  4035    1
  6024  4035  4038    1
  6025  4035  4328    1
  6026  4036  4041    1
  6027  4036  4037    1
  6028  4037  4038    1
  6029  4038  4039    1
  6030  4039  4042    1
  6031  4039  4332    1
  6032  4040  4045    1
  6033  4040  4041    1
  6034  4041  4042    1
  6035  4042  4043    1
  6036  4043  4046    1
  6037  4043  4336    1
  6038  4044  4049    1
  6039  4044  4045    1
  6040  4045  4046    1
  6041  4046  4047    1
  6042  4047  4050    1
  6043  4047  4340    1
  6044  4048  4049    1
  6045  4048  4053    1
  6046  4049  4050    1
  6047  4050  4051    1
  6048  4051  4054    1
  6049  4051  4344    1
  6050  4052  4057    1
  6051  4052  4053    1
  6052  4053  4054    1
  6053  4054  4055    1
  6054  4055  4058    1
  6055  4055  4348    1
  6056  4056  4061    1
  6057  4056  4057    1
  6058  4057  4058    1
  6059  4058  4059    1
  6060  4059  4062    1
  6061  4059  4352    1
  6062  4060  4065    1
  6063  4060  4061    1
  6064  4061  4062    1
  6065  4062  4063    1
  6066  4063  4066    1
  6067  4063  4356    1
  6068  4064  4065    1
  6069  4064  4069    1
  6070  4065  4066    1
  6071  4066  4067    1
  6072  4067  4070    1
  6073  4067  4360    1
  6074  4068  4069    1
  6075  4068  4073    1
  6076  4069  4070    1
  6077  4070  4071    1
  6078  4071  4074    1
  6079  4071  4364    1
  6080  4072  4077    1
  6081  4072  4073    1
  6082  4073  4074    1
  6083  4074  4075    1
  6084  4075  4078    1
  6085  4075  4368    1
  6086  4076  4077    1
  6087  4076  4081    1
  6088  4077  4078    1
  6089  4078  4079    1
  6090  4079  4082    1
  6091  4079  4372    1
  6092  4080  4085    1
  6093  4080  4081    1
  6094  4081  4082    1
  6095  4082  4083    1
  6096  4083  4086    1
  6097  4083  4376    1
  6098  4084  4085    1
  6099  4084  4089    1
  6100  4085  4086    1
  6101  4086  4087    1
  6102  4087  4090    1
  6103  4087  4380    1
  6104  4088  4089    1
  6105  4088  4093    1
  6106  4089  4090    1
  6107  4090  4091    1
  6108  4091  4094    1
  6109  4091  4384    1
  6110  4092  4097    1
  6111  4092  4093    1
  6112  4093  4094    1
  6113  4094  4095    1
  6114  4095  4098    1
  6115  4095  4388    1
  6116  4096  4101    1
  6117  4096  4097    1
  6118  4097  4098    1
  6119  4098  4099    1
  6120  4099  4102    1
  6121  4099  4392    1
  6122  4100  4105    1
  6123  4100  4101    1
  6124  4101  4102    1
  6125  4102  4103    1
  6126  4103  4106    1
  6127  4103  4396    1
  6128  4104  4105    1
  6129  4104  4109    1
  6130  4105  4106    1
  6131  4106  4107    1
  6132  4107  4110    1
  6133  4107  4400    1
  6134  4108  4109    1
  6135  4108  4113    1
  6136  4109  4110    1
  6137  4110  4111    1
  6138  4111  4114    1
  6139  4111  4404    1
  6140  4112  4117    1
  6141  4112  4113    1
  6142  4113  4114    1
  6143  4114  4115    1
  6144  4115  4118    1
  6145  4115  4408    1
  6146  4116  4121    1
  6147  4116  4117    1
  6148  4117  4118    1
  6149  4118  4119    1
  6150  4119  4122    1
  6151  4119  4412    1
  6152  4120  4125    1
  6153  4120  4121    1
  6154  4121  4122    1
  6155  4122  4123    1
  6156  4123  4126    1
  6157  4123  4416    1
  6158  4124  4125    1
  6159  4124  4129    1
  6160  4125  4126    1
  6161  4126  4127    1
  6162  4127  4130    1
  6163  4127  4420    1
  6164  4128  4129    1
  6165  4128  4133    1
  6166  4129  4130    1
  6167  4130  4131    1
  6168  4131  4134    1
  6169  4131  4424    1
  6170  4132  4137    1
  6171  4132  4133    1
  6172  4133  4134    1
  6173  4134  4135    1
  6174  4135  4138    1
  6175  4135  4428    1
  6176  4136  4141    1
  6177  4136  4137    1
  6178  4137  4138    1
  6179  4138  4139    1
  6180  4139  4142    1
  6181  4139  4432    1
  6182  4140  4141    1
  6183  4141  4142    1
  6184  4142  4143    1
  6185  4143  4436    1
  6186  4144  4145    1
  6187  4144  4149    1
  6188  4145  4146    1
  6189  4146  4147    1
  6190  4147  4150    1
  6191  4148  4149    1
  6192  4148  4153    1
  6193  4149  4150    1
  6194  4150  4151    1
  6195  4151  4154    1
  6196  4152  4153    1
  6197  4152  4157    1
  6198  4153  4154    1
  6199  4154  4155    1
  6200  4155  4158    1
  6201  4156  4161    1
  6202  4156  4157    1
  6203  4157  4158    1
  6204  4158  4159    1
  6205  4159  4162    1
  6206  4160  4165    1
  6207  4160  4161    1
  6208  4161  4162    1
  6209  4162  4163    1
  6210  4163  4166    1
  6211  4164  4165    1
  6212  4164  4169    1
  6213  4165  4166    1
  6214  4166  4167    1
  6215  4167  4170    1
  6216  4168  4169    1
  6217  4168  4173    1
  6218  4169  4170    1
  6219  4170  4171    1
  6220  4171  4174    1
  6221  4172  4177    1
  6222  4172  4173    1
  6223  4173  4174    1
  6224  4174  4175    1
  6225  4175  4178    1
  6226  4176  4181    1
  6227  4176  4177    1
  6228  4177  4178    1
  6229  4178  4179    1
  6230  4179  4182    1
  6231  4180  4181    1
  6232  4180  4185    1
  6233  4181  4182    1
  6234  4182  4183    1
  6235  4183  4186    1
  6236  4184  4185    1
  6237  4184  4189    1
  6238  4185  4186    1
  6239  4186  4187    1
  6240  4187  4190    1
  6241  4188  4189    1
  6242  4188  4193    1
  6243  4189  4190    1
  6244  4190  4191    1
  6245  4191  4194    1
  6246  4192  4197    1
  6247  4192  4193    1
  6248  4193  4194    1
  6249  4194  4195    1
  6250  4195  4198    1
  6251  4196  4201    1
  6252  4196  4197    1
  6253  4197  4198    1
  6254  4198  4199    1
  6255  4199  4202    1
  6256  4200  4205    1
  6257  4200  4201    1
  6258  4201  4202    1
  6259  4202  4203    1
  6260  4203  4206    1
  6261  4204  4205    1
  6262  4204  4209    1
  6263  4205  4206    1
  6264  4206  4207    1
  6265  4207  4210    1
  6266  4208  4209    1
  6267  4208  4213    1
  6268  4209  4210    1
  6269  4210  4211    1
  6270  4211  4214    1
  6271  4212  4217    1
  6272  4212  4213    1
  6273  4213  4214    1
  6274  4214  4215    1
  6275  4215  4218    1
  6276  4216  4221    1
  6277  4216  4217    1
  6278  4217  4218    1
  6279  4218  4219    1
  6280  4219  4222    1
  6281  4220  4225    1
  6282  4220  4221    1
  6283  4221  4222    1
  6284  4222  4223    1
  6285  4223  4226    1
  6286  4224  4225    1
  6287  4224  4229    1
  6288  4225  4226    1
  6289  4226  4227    1
  6290  4227  4230    1
  6291  4228  4229    1
  6292  4228  4233    1
  6293  4229  4230    1
  6294  4230  4231    1
  6295  4231  4234    1
  6296  4232  4233    1
  6297  4232  4237    1
  6298  4233  4234    1
  6299  4234  4235    1
  6300  4235  4238    1
  6301  4236  4241    1
  6302  4236  4237    1
  6303  4237  4238    1
  6304  4238  4239    1
  6305  4239  4242    1
  6306  4240  4245    1
  6307  4240  4241    1
  6308  4241  4242    1
  6309  4242  4243    1
  6310  4243  4246    1
  6311  4244  4245    1
  6312  4244  4249    1
  6313  4245  4246    1
  6314  4246  4247    1
  6315  4247  4250    1
  6316  4248  4249    1
  6317  4248  4253    1
  6318  4249  4250    1
  6319  4250  4251    1
  6320  4251  4254    1
  6321  4252  4257    1
  6322  4252  4253    1
  6323  4253  4254    1
  6324  4254  4255    1
  6325  4255  4258    1
  6326  4256  4261    1
  6327  4256  4257    1
  6328  4257  4258    1
  6329  4258  4259    1
  6330  4259  4262    1
  6331  4260  4261    1
  6332  4260  4265    1
  6333  4261  4262    1
  6334  4262  4263    1
  6335  4263  4266    1
  6336  4264  4265    1
  6337  4264  4269    1
  6338  4265  4266    1
  6339  4266  4267    1
  6340  4267  4270    1
  6341  4268  4269    1
  6342  4268  4273    1
  6343  4269  4270    1
  6344  4270  4271    1
  6345  4271  4274    1
  6346  4272  4277    1
  6347  4272  4273    1
  6348  4273  4274    1
  6349  4274  4275    1
  6350  4275  4278    1
  6351  4276  4281    1
  6352  4276  4277    1
  6353  4277  4278    1
  6354  4278  4279    1
  6355  4279  4282    1
  6356  4280  4285    1
  6357  4280  4281    1
  6358  4281  4282    1
  6359  4282  4283    1
  6360  4283  4286    1
  6361  4284  4285    1
  6362  4284  4289    1
  6363  4285  4286    1
  6364  4286  4287    1
  6365  4287  4290    1
  6366  4288  4289    1
  6367  4288  4293    1
  6368  4289  4290    1
  6369  4290  4291    1
  6370  4291  4294    1
  6371  4292  4297    1
  6372  4292  4293    1
  6373  4293  4294    1
  6374  4294  4295    1
  6375  4295  4298    1
  6376  4296  4301    1
  6377  4296  4297    1
  6378  4297  4298    1
  6379  4298  4299    1
  6380  4299  4302    1
  6381  4300  4305    1
  6382  4300  4301    1
  6383  4301  4302    1
  6384  4302  4303    1
  6385  4303  4306    1
  6386  4304  4305    1
  6387  4304  4309    1
  6388  4305  4306    1
  6389  4306  4307    1
  6390  4307  4310    1
  6391  4308  4309    1
  6392  4308  4313    1
  6393  4309  4310    1
  6394  4310  4311    1
  6395  4311  4314    1
  6396  4312  4313    1
  6397  4312  4317    1
  6398  4313  4314    1
  6399  4314  4315    1
  6400  4315  4318    1
  6401  4316  4321    1
  6402  4316  4317    1
  6403  4317  4318    1
  6404  4318  4319    1
  6405  4319  4322    1
  6406  4320  4325    1
  6407  4320  4321    1
  6408  4321  4322    1
  6409  4322  4323    1
  6410  4323  4326    1
  6411  4324  4325    1
  6412  4324  4329    1
  6413  4325  4326    1
  6414  4326  4327    1
  6415  4327  4330    1
  6416  4328  4329    1
  6417  4328  4333    1
  6418  4329  4330    1
  6419  4330  4331    1
  6420  4331  4334    1
  6421  4332  4337    1
  6422  4332  4333    1
  6423  4333  4334    1
  6424  4334  4335    1
  6425  4335  4338    1
  6426  4336  4341    1
  6427  4336  4337    1
  6428  4337  4338    1
  6429  4338  4339    1
  6430  4339  4342    1
  6431  4340  4341    1
  6432  4340  4345    1
  6433  4341  4342    1
  6434  4342  4343    1
  6435  4343  4346    1
  6436  4344  4345    1
  6437  4344  4349    1
  6438  4345  4346    1
  6439  4346  4347    1
  6440  4347  4350    1
  6441  4348  4353    1
  6442  4348  4349    1
  6443  4349  4350    1
  6444  4350  4351    1
  6445  4351  4354    1
  6446  4352  4357    1
  6447  4352  4353    1
  6448  4353  4354    1
  6449  4354  4355    1
  6450  4355  4358    1
  6451  4356  4361    1
  6452  4356  4357    1
  6453  4357  4358    1
  6454  4358  4359    1
  6455  4359  4362    1
  6456  4360  4361    1
  6457  4360  4365    1
  6458  4361  4362    1
  6459  4362  4363    1
  6460  4363  4366    1
  6461  4364  4365    1
  6462  4364  4369    1
  6463  4365  4366    1
  6464  4366  4367    1
  6465  4367  4370    1
  6466  4368  4373    1
  6467  4368  4369    1
  6468  4369  4370    1
  6469  4370  4371    1
  6470  4371  4374    1
  6471  4372  4377    1
  6472  4372  4373    1
  6473  4373  4374    1
  6474  4374  4375    1
  6475  4375  4378    1
  6476  4376  4381    1
  6477  4376  4377    1
  6478  4377  4378    1
  6479  4378  4379    1
  6480  4379  4382    1
  6481  4380  4381    1
  6482  4380  4385    1
  6483  4381  4382    1
  6484  4382  4383    1
  6485  4383  4386    1
  6486  4384  4385    1
  6487  4384  4389    1
  6488  4385  4386    1
  6489  4386  4387    1
  6490  4387  4390    1
  6491  4388  4393    1
  6492  4388  4389    1
  6493  4389  4390    1
  6494  4390  4391    1
  6495  4391  4394    1
  6496  4392  4393    1
  6497  4392  4397    1
  6498  4393  4394    1
  6499  4394  4395    1
  6500  4395  4398    1
  6501  4396  4401    1
  6502  4396  4397    1
  6503  4397  4398    1
  6504  4398  4399    1
  6505  4399  4402    1
  6506  4400  4401    1
  6507  4400  4405    1
  6508  4401  4402    1
  6509  4402  4403    1
  6510  4403  4406    1
  6511  4404  4405    1
  6512  4404  4409    1
  6513  4405  4406    1
  6514  4406  4407    1
  6515  4407  4410    1
  6516  4408  4413    1
  6517  4408  4409    1
  6518  4409  4410    1
  6519  4410  4411    1
  6520  4411  4414    1
  6521  4412  4417    1
  6522  4412  4413    1
  6523  4413  4414    1
  6524  4414  4415    1
  6525  4415  4418    1
  6526  4416  4421    1
  6527  4416  4417    1
  6528  4417  4418    1
  6529  4418  4419    1
  6530  4419  4422    1
  6531  4420  4421    1
  6532  4420  4425    1
  6533  4421  4422    1
  6534  4422  4423    1
  6535  4423  4426    1
  6536  4424  4425    1
  6537  4424  4429    1
  6538  4425  4426    1
  6539  4426  4427    1
  6540  4427  4430    1
  6541  4428  4433    1
  6542  4428  4429    1
  6543  4429  4430    1
  6544  4430  4431    1
  6545  4431  4434    1
  6546  4432  4437    1
  6547  4432  4433    1
  6548  4433  4434    1
  6549  4434  4435    1
  6550  4435  4438    1
  6551  4436  4437    1
  6552  4437  4438    1
  6553  4438  4439    1
  6554  4440  2056    1
  6555  4440  2058    1
  6556  4440  2059    1
