@<TRIPOS>MOLECULE
tube_armchair
 4704 7008    1    0    0
SMALL
NO_CHARGES

@<TRIPOS>ATOM
      1 C          16.2491    0.0000    0.0000 ca      1  CNT         0.000000
      2 C          16.1873    1.4162    0.0000 ca      1  CNT         0.000000
      3 C          16.1101    2.1209    1.2280 ca      1  CNT         0.000000
      4 C          15.8639    3.5169    1.2280 ca      1  CNT         0.000000
      5 C          15.6954    4.2056    0.0000 ca      1  CNT         0.000000
      6 C          15.2691    5.5575    0.0000 ca      1  CNT         0.000000
      7 C          15.0122    6.2183    1.2280 ca      1  CNT         0.000000
      8 C          14.4131    7.5030    1.2280 ca      1  CNT         0.000000
      9 C          14.0721    8.1245    0.0000 ca      1  CNT         0.000000
     10 C          13.3105    9.3201    0.0000 ca      1  CNT         0.000000
     11 C          12.8913    9.8918    1.2280 ca      1  CNT         0.000000
     12 C          11.9801   10.9777    1.2280 ca      1  CNT         0.000000
     13 C          11.4898   11.4898    0.0000 ca      1  CNT         0.000000
     14 C          10.4447   12.4475    0.0000 ca      1  CNT         0.000000
     15 C           9.8918   12.8913    1.2280 ca      1  CNT         0.000000
     16 C           8.7306   13.7043    1.2280 ca      1  CNT         0.000000
     17 C           8.1245   14.0721    0.0000 ca      1  CNT         0.000000
     18 C           6.8672   14.7267    0.0000 ca      1  CNT         0.000000
     19 C           6.2183   15.0122    1.2280 ca      1  CNT         0.000000
     20 C           4.8862   15.4970    1.2280 ca      1  CNT         0.000000
     21 C           4.2056   15.6954    0.0000 ca      1  CNT         0.000000
     22 C           2.8216   16.0022    0.0000 ca      1  CNT         0.000000
     23 C           2.1209   16.1101    1.2280 ca      1  CNT         0.000000
     24 C           0.7088   16.2336    1.2280 ca      1  CNT         0.000000
     25 C          -0.0000   16.2491    0.0000 ca      1  CNT         0.000000
     26 C          -1.4162   16.1873    0.0000 ca      1  CNT         0.000000
     27 C          -2.1209   16.1101    1.2280 ca      1  CNT         0.000000
     28 C          -3.5169   15.8639    1.2280 ca      1  CNT         0.000000
     29 C          -4.2056   15.6954    0.0000 ca      1  CNT         0.000000
     30 C          -5.5575   15.2691    0.0000 ca      1  CNT         0.000000
     31 C          -6.2183   15.0122    1.2280 ca      1  CNT         0.000000
     32 C          -7.5030   14.4131    1.2280 ca      1  CNT         0.000000
     33 C          -8.1245   14.0721    0.0000 ca      1  CNT         0.000000
     34 C          -9.3201   13.3105    0.0000 ca      1  CNT         0.000000
     35 C          -9.8918   12.8913    1.2280 ca      1  CNT         0.000000
     36 C         -10.9777   11.9801    1.2280 ca      1  CNT         0.000000
     37 C         -11.4898   11.4898    0.0000 ca      1  CNT         0.000000
     38 C         -12.4475   10.4447    0.0000 ca      1  CNT         0.000000
     39 C         -12.8913    9.8918    1.2280 ca      1  CNT         0.000000
     40 C         -13.7043    8.7306    1.2280 ca      1  CNT         0.000000
     41 C         -14.0721    8.1245    0.0000 ca      1  CNT         0.000000
     42 C         -14.7267    6.8672    0.0000 ca      1  CNT         0.000000
     43 C         -15.0122    6.2183    1.2280 ca      1  CNT         0.000000
     44 C         -15.4970    4.8862    1.2280 ca      1  CNT         0.000000
     45 C         -15.6954    4.2056    0.0000 ca      1  CNT         0.000000
     46 C         -16.0022    2.8216    0.0000 ca      1  CNT         0.000000
     47 C         -16.1101    2.1209    1.2280 ca      1  CNT         0.000000
     48 C         -16.2336    0.7088    1.2280 ca      1  CNT         0.000000
     49 C         -16.2491   -0.0000    0.0000 ca      1  CNT         0.000000
     50 C         -16.1873   -1.4162    0.0000 ca      1  CNT         0.000000
     51 C         -16.1101   -2.1209    1.2280 ca      1  CNT         0.000000
     52 C         -15.8639   -3.5169    1.2280 ca      1  CNT         0.000000
     53 C         -15.6954   -4.2056    0.0000 ca      1  CNT         0.000000
     54 C         -15.2691   -5.5575    0.0000 ca      1  CNT         0.000000
     55 C         -15.0122   -6.2183    1.2280 ca      1  CNT         0.000000
     56 C         -14.4131   -7.5030    1.2280 ca      1  CNT         0.000000
     57 C         -14.0721   -8.1245    0.0000 ca      1  CNT         0.000000
     58 C         -13.3105   -9.3201    0.0000 ca      1  CNT         0.000000
     59 C         -12.8913   -9.8918    1.2280 ca      1  CNT         0.000000
     60 C         -11.9801  -10.9777    1.2280 ca      1  CNT         0.000000
     61 C         -11.4898  -11.4898    0.0000 ca      1  CNT         0.000000
     62 C         -10.4447  -12.4475    0.0000 ca      1  CNT         0.000000
     63 C          -9.8918  -12.8913    1.2280 ca      1  CNT         0.000000
     64 C          -8.7306  -13.7043    1.2280 ca      1  CNT         0.000000
     65 C          -8.1245  -14.0721    0.0000 ca      1  CNT         0.000000
     66 C          -6.8672  -14.7267    0.0000 ca      1  CNT         0.000000
     67 C          -6.2183  -15.0122    1.2280 ca      1  CNT         0.000000
     68 C          -4.8862  -15.4970    1.2280 ca      1  CNT         0.000000
     69 C          -4.2056  -15.6954    0.0000 ca      1  CNT         0.000000
     70 C          -2.8216  -16.0022    0.0000 ca      1  CNT         0.000000
     71 C          -2.1209  -16.1101    1.2280 ca      1  CNT         0.000000
     72 C          -0.7088  -16.2336    1.2280 ca      1  CNT         0.000000
     73 C           0.0000  -16.2491    0.0000 ca      1  CNT         0.000000
     74 C           1.4162  -16.1873    0.0000 ca      1  CNT         0.000000
     75 C           2.1209  -16.1101    1.2280 ca      1  CNT         0.000000
     76 C           3.5169  -15.8639    1.2280 ca      1  CNT         0.000000
     77 C           4.2056  -15.6954    0.0000 ca      1  CNT         0.000000
     78 C           5.5575  -15.2691    0.0000 ca      1  CNT         0.000000
     79 C           6.2183  -15.0122    1.2280 ca      1  CNT         0.000000
     80 C           7.5030  -14.4131    1.2280 ca      1  CNT         0.000000
     81 C           8.1245  -14.0721    0.0000 ca      1  CNT         0.000000
     82 C           9.3201  -13.3105    0.0000 ca      1  CNT         0.000000
     83 C           9.8918  -12.8913    1.2280 ca      1  CNT         0.000000
     84 C          10.9777  -11.9801    1.2280 ca      1  CNT         0.000000
     85 C          11.4898  -11.4898    0.0000 ca      1  CNT         0.000000
     86 C          12.4475  -10.4447    0.0000 ca      1  CNT         0.000000
     87 C          12.8913   -9.8918    1.2280 ca      1  CNT         0.000000
     88 C          13.7043   -8.7306    1.2280 ca      1  CNT         0.000000
     89 C          14.0721   -8.1245    0.0000 ca      1  CNT         0.000000
     90 C          14.7267   -6.8672    0.0000 ca      1  CNT         0.000000
     91 C          15.0122   -6.2183    1.2280 ca      1  CNT         0.000000
     92 C          15.4970   -4.8862    1.2280 ca      1  CNT         0.000000
     93 C          15.6954   -4.2056    0.0000 ca      1  CNT         0.000000
     94 C          16.0022   -2.8216    0.0000 ca      1  CNT         0.000000
     95 C          16.1101   -2.1209    1.2280 ca      1  CNT         0.000000
     96 C          16.2336   -0.7088    1.2280 ca      1  CNT         0.000000
     97 C          16.2491    0.0000    2.4560 ca      1  CNT         0.000000
     98 C          16.1873    1.4162    2.4560 ca      1  CNT         0.000000
     99 C          16.1101    2.1209    3.6841 ca      1  CNT         0.000000
    100 C          15.8639    3.5169    3.6841 ca      1  CNT         0.000000
    101 C          15.6954    4.2056    2.4560 ca      1  CNT         0.000000
    102 C          15.2691    5.5575    2.4560 ca      1  CNT         0.000000
    103 C          15.0122    6.2183    3.6841 ca      1  CNT         0.000000
    104 C          14.4131    7.5030    3.6841 ca      1  CNT         0.000000
    105 C          14.0721    8.1245    2.4560 ca      1  CNT         0.000000
    106 C          13.3105    9.3201    2.4560 ca      1  CNT         0.000000
    107 C          12.8913    9.8918    3.6841 ca      1  CNT         0.000000
    108 C          11.9801   10.9777    3.6841 ca      1  CNT         0.000000
    109 C          11.4898   11.4898    2.4560 ca      1  CNT         0.000000
    110 C          10.4447   12.4475    2.4560 ca      1  CNT         0.000000
    111 C           9.8918   12.8913    3.6841 ca      1  CNT         0.000000
    112 C           8.7306   13.7043    3.6841 ca      1  CNT         0.000000
    113 C           8.1245   14.0721    2.4560 ca      1  CNT         0.000000
    114 C           6.8672   14.7267    2.4560 ca      1  CNT         0.000000
    115 C           6.2183   15.0122    3.6841 ca      1  CNT         0.000000
    116 C           4.8862   15.4970    3.6841 ca      1  CNT         0.000000
    117 C           4.2056   15.6954    2.4560 ca      1  CNT         0.000000
    118 C           2.8216   16.0022    2.4560 ca      1  CNT         0.000000
    119 C           2.1209   16.1101    3.6841 ca      1  CNT         0.000000
    120 C           0.7088   16.2336    3.6841 ca      1  CNT         0.000000
    121 C          -0.0000   16.2491    2.4560 ca      1  CNT         0.000000
    122 C          -1.4162   16.1873    2.4560 ca      1  CNT         0.000000
    123 C          -2.1209   16.1101    3.6841 ca      1  CNT         0.000000
    124 C          -3.5169   15.8639    3.6841 ca      1  CNT         0.000000
    125 C          -4.2056   15.6954    2.4560 ca      1  CNT         0.000000
    126 C          -5.5575   15.2691    2.4560 ca      1  CNT         0.000000
    127 C          -6.2183   15.0122    3.6841 ca      1  CNT         0.000000
    128 C          -7.5030   14.4131    3.6841 ca      1  CNT         0.000000
    129 C          -8.1245   14.0721    2.4560 ca      1  CNT         0.000000
    130 C          -9.3201   13.3105    2.4560 ca      1  CNT         0.000000
    131 C          -9.8918   12.8913    3.6841 ca      1  CNT         0.000000
    132 C         -10.9777   11.9801    3.6841 ca      1  CNT         0.000000
    133 C         -11.4898   11.4898    2.4560 ca      1  CNT         0.000000
    134 C         -12.4475   10.4447    2.4560 ca      1  CNT         0.000000
    135 C         -12.8913    9.8918    3.6841 ca      1  CNT         0.000000
    136 C         -13.7043    8.7306    3.6841 ca      1  CNT         0.000000
    137 C         -14.0721    8.1245    2.4560 ca      1  CNT         0.000000
    138 C         -14.7267    6.8672    2.4560 ca      1  CNT         0.000000
    139 C         -15.0122    6.2183    3.6841 ca      1  CNT         0.000000
    140 C         -15.4970    4.8862    3.6841 ca      1  CNT         0.000000
    141 C         -15.6954    4.2056    2.4560 ca      1  CNT         0.000000
    142 C         -16.0022    2.8216    2.4560 ca      1  CNT         0.000000
    143 C         -16.1101    2.1209    3.6841 ca      1  CNT         0.000000
    144 C         -16.2336    0.7088    3.6841 ca      1  CNT         0.000000
    145 C         -16.2491   -0.0000    2.4560 ca      1  CNT         0.000000
    146 C         -16.1873   -1.4162    2.4560 ca      1  CNT         0.000000
    147 C         -16.1101   -2.1209    3.6841 ca      1  CNT         0.000000
    148 C         -15.8639   -3.5169    3.6841 ca      1  CNT         0.000000
    149 C         -15.6954   -4.2056    2.4560 ca      1  CNT         0.000000
    150 C         -15.2691   -5.5575    2.4560 ca      1  CNT         0.000000
    151 C         -15.0122   -6.2183    3.6841 ca      1  CNT         0.000000
    152 C         -14.4131   -7.5030    3.6841 ca      1  CNT         0.000000
    153 C         -14.0721   -8.1245    2.4560 ca      1  CNT         0.000000
    154 C         -13.3105   -9.3201    2.4560 ca      1  CNT         0.000000
    155 C         -12.8913   -9.8918    3.6841 ca      1  CNT         0.000000
    156 C         -11.9801  -10.9777    3.6841 ca      1  CNT         0.000000
    157 C         -11.4898  -11.4898    2.4560 ca      1  CNT         0.000000
    158 C         -10.4447  -12.4475    2.4560 ca      1  CNT         0.000000
    159 C          -9.8918  -12.8913    3.6841 ca      1  CNT         0.000000
    160 C          -8.7306  -13.7043    3.6841 ca      1  CNT         0.000000
    161 C          -8.1245  -14.0721    2.4560 ca      1  CNT         0.000000
    162 C          -6.8672  -14.7267    2.4560 ca      1  CNT         0.000000
    163 C          -6.2183  -15.0122    3.6841 ca      1  CNT         0.000000
    164 C          -4.8862  -15.4970    3.6841 ca      1  CNT         0.000000
    165 C          -4.2056  -15.6954    2.4560 ca      1  CNT         0.000000
    166 C          -2.8216  -16.0022    2.4560 ca      1  CNT         0.000000
    167 C          -2.1209  -16.1101    3.6841 ca      1  CNT         0.000000
    168 C          -0.7088  -16.2336    3.6841 ca      1  CNT         0.000000
    169 C           0.0000  -16.2491    2.4560 ca      1  CNT         0.000000
    170 C           1.4162  -16.1873    2.4560 ca      1  CNT         0.000000
    171 C           2.1209  -16.1101    3.6841 ca      1  CNT         0.000000
    172 C           3.5169  -15.8639    3.6841 ca      1  CNT         0.000000
    173 C           4.2056  -15.6954    2.4560 ca      1  CNT         0.000000
    174 C           5.5575  -15.2691    2.4560 ca      1  CNT         0.000000
    175 C           6.2183  -15.0122    3.6841 ca      1  CNT         0.000000
    176 C           7.5030  -14.4131    3.6841 ca      1  CNT         0.000000
    177 C           8.1245  -14.0721    2.4560 ca      1  CNT         0.000000
    178 C           9.3201  -13.3105    2.4560 ca      1  CNT         0.000000
    179 C           9.8918  -12.8913    3.6841 ca      1  CNT         0.000000
    180 C          10.9777  -11.9801    3.6841 ca      1  CNT         0.000000
    181 C          11.4898  -11.4898    2.4560 ca      1  CNT         0.000000
    182 C          12.4475  -10.4447    2.4560 ca      1  CNT         0.000000
    183 C          12.8913   -9.8918    3.6841 ca      1  CNT         0.000000
    184 C          13.7043   -8.7306    3.6841 ca      1  CNT         0.000000
    185 C          14.0721   -8.1245    2.4560 ca      1  CNT         0.000000
    186 C          14.7267   -6.8672    2.4560 ca      1  CNT         0.000000
    187 C          15.0122   -6.2183    3.6841 ca      1  CNT         0.000000
    188 C          15.4970   -4.8862    3.6841 ca      1  CNT         0.000000
    189 C          15.6954   -4.2056    2.4560 ca      1  CNT         0.000000
    190 C          16.0022   -2.8216    2.4560 ca      1  CNT         0.000000
    191 C          16.1101   -2.1209    3.6841 ca      1  CNT         0.000000
    192 C          16.2336   -0.7088    3.6841 ca      1  CNT         0.000000
    193 C          16.2491    0.0000    4.9121 ca      1  CNT         0.000000
    194 C          16.1873    1.4162    4.9121 ca      1  CNT         0.000000
    195 C          16.1101    2.1209    6.1401 ca      1  CNT         0.000000
    196 C          15.8639    3.5169    6.1401 ca      1  CNT         0.000000
    197 C          15.6954    4.2056    4.9121 ca      1  CNT         0.000000
    198 C          15.2691    5.5575    4.9121 ca      1  CNT         0.000000
    199 C          15.0122    6.2183    6.1401 ca      1  CNT         0.000000
    200 C          14.4131    7.5030    6.1401 ca      1  CNT         0.000000
    201 C          14.0721    8.1245    4.9121 ca      1  CNT         0.000000
    202 C          13.3105    9.3201    4.9121 ca      1  CNT         0.000000
    203 C          12.8913    9.8918    6.1401 ca      1  CNT         0.000000
    204 C          11.9801   10.9777    6.1401 ca      1  CNT         0.000000
    205 C          11.4898   11.4898    4.9121 ca      1  CNT         0.000000
    206 C          10.4447   12.4475    4.9121 ca      1  CNT         0.000000
    207 C           9.8918   12.8913    6.1401 ca      1  CNT         0.000000
    208 C           8.7306   13.7043    6.1401 ca      1  CNT         0.000000
    209 C           8.1245   14.0721    4.9121 ca      1  CNT         0.000000
    210 C           6.8672   14.7267    4.9121 ca      1  CNT         0.000000
    211 C           6.2183   15.0122    6.1401 ca      1  CNT         0.000000
    212 C           4.8862   15.4970    6.1401 ca      1  CNT         0.000000
    213 C           4.2056   15.6954    4.9121 ca      1  CNT         0.000000
    214 C           2.8216   16.0022    4.9121 ca      1  CNT         0.000000
    215 C           2.1209   16.1101    6.1401 ca      1  CNT         0.000000
    216 C           0.7088   16.2336    6.1401 ca      1  CNT         0.000000
    217 C          -0.0000   16.2491    4.9121 ca      1  CNT         0.000000
    218 C          -1.4162   16.1873    4.9121 ca      1  CNT         0.000000
    219 C          -2.1209   16.1101    6.1401 ca      1  CNT         0.000000
    220 C          -3.5169   15.8639    6.1401 ca      1  CNT         0.000000
    221 C          -4.2056   15.6954    4.9121 ca      1  CNT         0.000000
    222 C          -5.5575   15.2691    4.9121 ca      1  CNT         0.000000
    223 C          -6.2183   15.0122    6.1401 ca      1  CNT         0.000000
    224 C          -7.5030   14.4131    6.1401 ca      1  CNT         0.000000
    225 C          -8.1245   14.0721    4.9121 ca      1  CNT         0.000000
    226 C          -9.3201   13.3105    4.9121 ca      1  CNT         0.000000
    227 C          -9.8918   12.8913    6.1401 ca      1  CNT         0.000000
    228 C         -10.9777   11.9801    6.1401 ca      1  CNT         0.000000
    229 C         -11.4898   11.4898    4.9121 ca      1  CNT         0.000000
    230 C         -12.4475   10.4447    4.9121 ca      1  CNT         0.000000
    231 C         -12.8913    9.8918    6.1401 ca      1  CNT         0.000000
    232 C         -13.7043    8.7306    6.1401 ca      1  CNT         0.000000
    233 C         -14.0721    8.1245    4.9121 ca      1  CNT         0.000000
    234 C         -14.7267    6.8672    4.9121 ca      1  CNT         0.000000
    235 C         -15.0122    6.2183    6.1401 ca      1  CNT         0.000000
    236 C         -15.4970    4.8862    6.1401 ca      1  CNT         0.000000
    237 C         -15.6954    4.2056    4.9121 ca      1  CNT         0.000000
    238 C         -16.0022    2.8216    4.9121 ca      1  CNT         0.000000
    239 C         -16.1101    2.1209    6.1401 ca      1  CNT         0.000000
    240 C         -16.2336    0.7088    6.1401 ca      1  CNT         0.000000
    241 C         -16.2491   -0.0000    4.9121 ca      1  CNT         0.000000
    242 C         -16.1873   -1.4162    4.9121 ca      1  CNT         0.000000
    243 C         -16.1101   -2.1209    6.1401 ca      1  CNT         0.000000
    244 C         -15.8639   -3.5169    6.1401 ca      1  CNT         0.000000
    245 C         -15.6954   -4.2056    4.9121 ca      1  CNT         0.000000
    246 C         -15.2691   -5.5575    4.9121 ca      1  CNT         0.000000
    247 C         -15.0122   -6.2183    6.1401 ca      1  CNT         0.000000
    248 C         -14.4131   -7.5030    6.1401 ca      1  CNT         0.000000
    249 C         -14.0721   -8.1245    4.9121 ca      1  CNT         0.000000
    250 C         -13.3105   -9.3201    4.9121 ca      1  CNT         0.000000
    251 C         -12.8913   -9.8918    6.1401 ca      1  CNT         0.000000
    252 C         -11.9801  -10.9777    6.1401 ca      1  CNT         0.000000
    253 C         -11.4898  -11.4898    4.9121 ca      1  CNT         0.000000
    254 C         -10.4447  -12.4475    4.9121 ca      1  CNT         0.000000
    255 C          -9.8918  -12.8913    6.1401 ca      1  CNT         0.000000
    256 C          -8.7306  -13.7043    6.1401 ca      1  CNT         0.000000
    257 C          -8.1245  -14.0721    4.9121 ca      1  CNT         0.000000
    258 C          -6.8672  -14.7267    4.9121 ca      1  CNT         0.000000
    259 C          -6.2183  -15.0122    6.1401 ca      1  CNT         0.000000
    260 C          -4.8862  -15.4970    6.1401 ca      1  CNT         0.000000
    261 C          -4.2056  -15.6954    4.9121 ca      1  CNT         0.000000
    262 C          -2.8216  -16.0022    4.9121 ca      1  CNT         0.000000
    263 C          -2.1209  -16.1101    6.1401 ca      1  CNT         0.000000
    264 C          -0.7088  -16.2336    6.1401 ca      1  CNT         0.000000
    265 C           0.0000  -16.2491    4.9121 ca      1  CNT         0.000000
    266 C           1.4162  -16.1873    4.9121 ca      1  CNT         0.000000
    267 C           2.1209  -16.1101    6.1401 ca      1  CNT         0.000000
    268 C           3.5169  -15.8639    6.1401 ca      1  CNT         0.000000
    269 C           4.2056  -15.6954    4.9121 ca      1  CNT         0.000000
    270 C           5.5575  -15.2691    4.9121 ca      1  CNT         0.000000
    271 C           6.2183  -15.0122    6.1401 ca      1  CNT         0.000000
    272 C           7.5030  -14.4131    6.1401 ca      1  CNT         0.000000
    273 C           8.1245  -14.0721    4.9121 ca      1  CNT         0.000000
    274 C           9.3201  -13.3105    4.9121 ca      1  CNT         0.000000
    275 C           9.8918  -12.8913    6.1401 ca      1  CNT         0.000000
    276 C          10.9777  -11.9801    6.1401 ca      1  CNT         0.000000
    277 C          11.4898  -11.4898    4.9121 ca      1  CNT         0.000000
    278 C          12.4475  -10.4447    4.9121 ca      1  CNT         0.000000
    279 C          12.8913   -9.8918    6.1401 ca      1  CNT         0.000000
    280 C          13.7043   -8.7306    6.1401 ca      1  CNT         0.000000
    281 C          14.0721   -8.1245    4.9121 ca      1  CNT         0.000000
    282 C          14.7267   -6.8672    4.9121 ca      1  CNT         0.000000
    283 C          15.0122   -6.2183    6.1401 ca      1  CNT         0.000000
    284 C          15.4970   -4.8862    6.1401 ca      1  CNT         0.000000
    285 C          15.6954   -4.2056    4.9121 ca      1  CNT         0.000000
    286 C          16.0022   -2.8216    4.9121 ca      1  CNT         0.000000
    287 C          16.1101   -2.1209    6.1401 ca      1  CNT         0.000000
    288 C          16.2336   -0.7088    6.1401 ca      1  CNT         0.000000
    289 C          16.2491    0.0000    7.3681 ca      1  CNT         0.000000
    290 C          16.1873    1.4162    7.3681 ca      1  CNT         0.000000
    291 C          16.1101    2.1209    8.5962 ca      1  CNT         0.000000
    292 C          15.8639    3.5169    8.5962 ca      1  CNT         0.000000
    293 C          15.6954    4.2056    7.3681 ca      1  CNT         0.000000
    294 C          15.2691    5.5575    7.3681 ca      1  CNT         0.000000
    295 C          15.0122    6.2183    8.5962 ca      1  CNT         0.000000
    296 C          14.4131    7.5030    8.5962 ca      1  CNT         0.000000
    297 C          14.0721    8.1245    7.3681 ca      1  CNT         0.000000
    298 C          13.3105    9.3201    7.3681 ca      1  CNT         0.000000
    299 C          12.8913    9.8918    8.5962 ca      1  CNT         0.000000
    300 C          11.9801   10.9777    8.5962 ca      1  CNT         0.000000
    301 C          11.4898   11.4898    7.3681 ca      1  CNT         0.000000
    302 C          10.4447   12.4475    7.3681 ca      1  CNT         0.000000
    303 C           9.8918   12.8913    8.5962 ca      1  CNT         0.000000
    304 C           8.7306   13.7043    8.5962 ca      1  CNT         0.000000
    305 C           8.1245   14.0721    7.3681 ca      1  CNT         0.000000
    306 C           6.8672   14.7267    7.3681 ca      1  CNT         0.000000
    307 C           6.2183   15.0122    8.5962 ca      1  CNT         0.000000
    308 C           4.8862   15.4970    8.5962 ca      1  CNT         0.000000
    309 C           4.2056   15.6954    7.3681 ca      1  CNT         0.000000
    310 C           2.8216   16.0022    7.3681 ca      1  CNT         0.000000
    311 C           2.1209   16.1101    8.5962 ca      1  CNT         0.000000
    312 C           0.7088   16.2336    8.5962 ca      1  CNT         0.000000
    313 C          -0.0000   16.2491    7.3681 ca      1  CNT         0.000000
    314 C          -1.4162   16.1873    7.3681 ca      1  CNT         0.000000
    315 C          -2.1209   16.1101    8.5962 ca      1  CNT         0.000000
    316 C          -3.5169   15.8639    8.5962 ca      1  CNT         0.000000
    317 C          -4.2056   15.6954    7.3681 ca      1  CNT         0.000000
    318 C          -5.5575   15.2691    7.3681 ca      1  CNT         0.000000
    319 C          -6.2183   15.0122    8.5962 ca      1  CNT         0.000000
    320 C          -7.5030   14.4131    8.5962 ca      1  CNT         0.000000
    321 C          -8.1245   14.0721    7.3681 ca      1  CNT         0.000000
    322 C          -9.3201   13.3105    7.3681 ca      1  CNT         0.000000
    323 C          -9.8918   12.8913    8.5962 ca      1  CNT         0.000000
    324 C         -10.9777   11.9801    8.5962 ca      1  CNT         0.000000
    325 C         -11.4898   11.4898    7.3681 ca      1  CNT         0.000000
    326 C         -12.4475   10.4447    7.3681 ca      1  CNT         0.000000
    327 C         -12.8913    9.8918    8.5962 ca      1  CNT         0.000000
    328 C         -13.7043    8.7306    8.5962 ca      1  CNT         0.000000
    329 C         -14.0721    8.1245    7.3681 ca      1  CNT         0.000000
    330 C         -14.7267    6.8672    7.3681 ca      1  CNT         0.000000
    331 C         -15.0122    6.2183    8.5962 ca      1  CNT         0.000000
    332 C         -15.4970    4.8862    8.5962 ca      1  CNT         0.000000
    333 C         -15.6954    4.2056    7.3681 ca      1  CNT         0.000000
    334 C         -16.0022    2.8216    7.3681 ca      1  CNT         0.000000
    335 C         -16.1101    2.1209    8.5962 ca      1  CNT         0.000000
    336 C         -16.2336    0.7088    8.5962 ca      1  CNT         0.000000
    337 C         -16.2491   -0.0000    7.3681 ca      1  CNT         0.000000
    338 C         -16.1873   -1.4162    7.3681 ca      1  CNT         0.000000
    339 C         -16.1101   -2.1209    8.5962 ca      1  CNT         0.000000
    340 C         -15.8639   -3.5169    8.5962 ca      1  CNT         0.000000
    341 C         -15.6954   -4.2056    7.3681 ca      1  CNT         0.000000
    342 C         -15.2691   -5.5575    7.3681 ca      1  CNT         0.000000
    343 C         -15.0122   -6.2183    8.5962 ca      1  CNT         0.000000
    344 C         -14.4131   -7.5030    8.5962 ca      1  CNT         0.000000
    345 C         -14.0721   -8.1245    7.3681 ca      1  CNT         0.000000
    346 C         -13.3105   -9.3201    7.3681 ca      1  CNT         0.000000
    347 C         -12.8913   -9.8918    8.5962 ca      1  CNT         0.000000
    348 C         -11.9801  -10.9777    8.5962 ca      1  CNT         0.000000
    349 C         -11.4898  -11.4898    7.3681 ca      1  CNT         0.000000
    350 C         -10.4447  -12.4475    7.3681 ca      1  CNT         0.000000
    351 C          -9.8918  -12.8913    8.5962 ca      1  CNT         0.000000
    352 C          -8.7306  -13.7043    8.5962 ca      1  CNT         0.000000
    353 C          -8.1245  -14.0721    7.3681 ca      1  CNT         0.000000
    354 C          -6.8672  -14.7267    7.3681 ca      1  CNT         0.000000
    355 C          -6.2183  -15.0122    8.5962 ca      1  CNT         0.000000
    356 C          -4.8862  -15.4970    8.5962 ca      1  CNT         0.000000
    357 C          -4.2056  -15.6954    7.3681 ca      1  CNT         0.000000
    358 C          -2.8216  -16.0022    7.3681 ca      1  CNT         0.000000
    359 C          -2.1209  -16.1101    8.5962 ca      1  CNT         0.000000
    360 C          -0.7088  -16.2336    8.5962 ca      1  CNT         0.000000
    361 C           0.0000  -16.2491    7.3681 ca      1  CNT         0.000000
    362 C           1.4162  -16.1873    7.3681 ca      1  CNT         0.000000
    363 C           2.1209  -16.1101    8.5962 ca      1  CNT         0.000000
    364 C           3.5169  -15.8639    8.5962 ca      1  CNT         0.000000
    365 C           4.2056  -15.6954    7.3681 ca      1  CNT         0.000000
    366 C           5.5575  -15.2691    7.3681 ca      1  CNT         0.000000
    367 C           6.2183  -15.0122    8.5962 ca      1  CNT         0.000000
    368 C           7.5030  -14.4131    8.5962 ca      1  CNT         0.000000
    369 C           8.1245  -14.0721    7.3681 ca      1  CNT         0.000000
    370 C           9.3201  -13.3105    7.3681 ca      1  CNT         0.000000
    371 C           9.8918  -12.8913    8.5962 ca      1  CNT         0.000000
    372 C          10.9777  -11.9801    8.5962 ca      1  CNT         0.000000
    373 C          11.4898  -11.4898    7.3681 ca      1  CNT         0.000000
    374 C          12.4475  -10.4447    7.3681 ca      1  CNT         0.000000
    375 C          12.8913   -9.8918    8.5962 ca      1  CNT         0.000000
    376 C          13.7043   -8.7306    8.5962 ca      1  CNT         0.000000
    377 C          14.0721   -8.1245    7.3681 ca      1  CNT         0.000000
    378 C          14.7267   -6.8672    7.3681 ca      1  CNT         0.000000
    379 C          15.0122   -6.2183    8.5962 ca      1  CNT         0.000000
    380 C          15.4970   -4.8862    8.5962 ca      1  CNT         0.000000
    381 C          15.6954   -4.2056    7.3681 ca      1  CNT         0.000000
    382 C          16.0022   -2.8216    7.3681 ca      1  CNT         0.000000
    383 C          16.1101   -2.1209    8.5962 ca      1  CNT         0.000000
    384 C          16.2336   -0.7088    8.5962 ca      1  CNT         0.000000
    385 C          16.2491    0.0000    9.8242 ca      1  CNT         0.000000
    386 C          16.1873    1.4162    9.8242 ca      1  CNT         0.000000
    387 C          16.1101    2.1209   11.0522 ca      1  CNT         0.000000
    388 C          15.8639    3.5169   11.0522 ca      1  CNT         0.000000
    389 C          15.6954    4.2056    9.8242 ca      1  CNT         0.000000
    390 C          15.2691    5.5575    9.8242 ca      1  CNT         0.000000
    391 C          15.0122    6.2183   11.0522 ca      1  CNT         0.000000
    392 C          14.4131    7.5030   11.0522 ca      1  CNT         0.000000
    393 C          14.0721    8.1245    9.8242 ca      1  CNT         0.000000
    394 C          13.3105    9.3201    9.8242 ca      1  CNT         0.000000
    395 C          12.8913    9.8918   11.0522 ca      1  CNT         0.000000
    396 C          11.9801   10.9777   11.0522 ca      1  CNT         0.000000
    397 C          11.4898   11.4898    9.8242 ca      1  CNT         0.000000
    398 C          10.4447   12.4475    9.8242 ca      1  CNT         0.000000
    399 C           9.8918   12.8913   11.0522 ca      1  CNT         0.000000
    400 C           8.7306   13.7043   11.0522 ca      1  CNT         0.000000
    401 C           8.1245   14.0721    9.8242 ca      1  CNT         0.000000
    402 C           6.8672   14.7267    9.8242 ca      1  CNT         0.000000
    403 C           6.2183   15.0122   11.0522 ca      1  CNT         0.000000
    404 C           4.8862   15.4970   11.0522 ca      1  CNT         0.000000
    405 C           4.2056   15.6954    9.8242 ca      1  CNT         0.000000
    406 C           2.8216   16.0022    9.8242 ca      1  CNT         0.000000
    407 C           2.1209   16.1101   11.0522 ca      1  CNT         0.000000
    408 C           0.7088   16.2336   11.0522 ca      1  CNT         0.000000
    409 C          -0.0000   16.2491    9.8242 ca      1  CNT         0.000000
    410 C          -1.4162   16.1873    9.8242 ca      1  CNT         0.000000
    411 C          -2.1209   16.1101   11.0522 ca      1  CNT         0.000000
    412 C          -3.5169   15.8639   11.0522 ca      1  CNT         0.000000
    413 C          -4.2056   15.6954    9.8242 ca      1  CNT         0.000000
    414 C          -5.5575   15.2691    9.8242 ca      1  CNT         0.000000
    415 C          -6.2183   15.0122   11.0522 ca      1  CNT         0.000000
    416 C          -7.5030   14.4131   11.0522 ca      1  CNT         0.000000
    417 C          -8.1245   14.0721    9.8242 ca      1  CNT         0.000000
    418 C          -9.3201   13.3105    9.8242 ca      1  CNT         0.000000
    419 C          -9.8918   12.8913   11.0522 ca      1  CNT         0.000000
    420 C         -10.9777   11.9801   11.0522 ca      1  CNT         0.000000
    421 C         -11.4898   11.4898    9.8242 ca      1  CNT         0.000000
    422 C         -12.4475   10.4447    9.8242 ca      1  CNT         0.000000
    423 C         -12.8913    9.8918   11.0522 ca      1  CNT         0.000000
    424 C         -13.7043    8.7306   11.0522 ca      1  CNT         0.000000
    425 C         -14.0721    8.1245    9.8242 ca      1  CNT         0.000000
    426 C         -14.7267    6.8672    9.8242 ca      1  CNT         0.000000
    427 C         -15.0122    6.2183   11.0522 ca      1  CNT         0.000000
    428 C         -15.4970    4.8862   11.0522 ca      1  CNT         0.000000
    429 C         -15.6954    4.2056    9.8242 ca      1  CNT         0.000000
    430 C         -16.0022    2.8216    9.8242 ca      1  CNT         0.000000
    431 C         -16.1101    2.1209   11.0522 ca      1  CNT         0.000000
    432 C         -16.2336    0.7088   11.0522 ca      1  CNT         0.000000
    433 C         -16.2491   -0.0000    9.8242 ca      1  CNT         0.000000
    434 C         -16.1873   -1.4162    9.8242 ca      1  CNT         0.000000
    435 C         -16.1101   -2.1209   11.0522 ca      1  CNT         0.000000
    436 C         -15.8639   -3.5169   11.0522 ca      1  CNT         0.000000
    437 C         -15.6954   -4.2056    9.8242 ca      1  CNT         0.000000
    438 C         -15.2691   -5.5575    9.8242 ca      1  CNT         0.000000
    439 C         -15.0122   -6.2183   11.0522 ca      1  CNT         0.000000
    440 C         -14.4131   -7.5030   11.0522 ca      1  CNT         0.000000
    441 C         -14.0721   -8.1245    9.8242 ca      1  CNT         0.000000
    442 C         -13.3105   -9.3201    9.8242 ca      1  CNT         0.000000
    443 C         -12.8913   -9.8918   11.0522 ca      1  CNT         0.000000
    444 C         -11.9801  -10.9777   11.0522 ca      1  CNT         0.000000
    445 C         -11.4898  -11.4898    9.8242 ca      1  CNT         0.000000
    446 C         -10.4447  -12.4475    9.8242 ca      1  CNT         0.000000
    447 C          -9.8918  -12.8913   11.0522 ca      1  CNT         0.000000
    448 C          -8.7306  -13.7043   11.0522 ca      1  CNT         0.000000
    449 C          -8.1245  -14.0721    9.8242 ca      1  CNT         0.000000
    450 C          -6.8672  -14.7267    9.8242 ca      1  CNT         0.000000
    451 C          -6.2183  -15.0122   11.0522 ca      1  CNT         0.000000
    452 C          -4.8862  -15.4970   11.0522 ca      1  CNT         0.000000
    453 C          -4.2056  -15.6954    9.8242 ca      1  CNT         0.000000
    454 C          -2.8216  -16.0022    9.8242 ca      1  CNT         0.000000
    455 C          -2.1209  -16.1101   11.0522 ca      1  CNT         0.000000
    456 C          -0.7088  -16.2336   11.0522 ca      1  CNT         0.000000
    457 C           0.0000  -16.2491    9.8242 ca      1  CNT         0.000000
    458 C           1.4162  -16.1873    9.8242 ca      1  CNT         0.000000
    459 C           2.1209  -16.1101   11.0522 ca      1  CNT         0.000000
    460 C           3.5169  -15.8639   11.0522 ca      1  CNT         0.000000
    461 C           4.2056  -15.6954    9.8242 ca      1  CNT         0.000000
    462 C           5.5575  -15.2691    9.8242 ca      1  CNT         0.000000
    463 C           6.2183  -15.0122   11.0522 ca      1  CNT         0.000000
    464 C           7.5030  -14.4131   11.0522 ca      1  CNT         0.000000
    465 C           8.1245  -14.0721    9.8242 ca      1  CNT         0.000000
    466 C           9.3201  -13.3105    9.8242 ca      1  CNT         0.000000
    467 C           9.8918  -12.8913   11.0522 ca      1  CNT         0.000000
    468 C          10.9777  -11.9801   11.0522 ca      1  CNT         0.000000
    469 C          11.4898  -11.4898    9.8242 ca      1  CNT         0.000000
    470 C          12.4475  -10.4447    9.8242 ca      1  CNT         0.000000
    471 C          12.8913   -9.8918   11.0522 ca      1  CNT         0.000000
    472 C          13.7043   -8.7306   11.0522 ca      1  CNT         0.000000
    473 C          14.0721   -8.1245    9.8242 ca      1  CNT         0.000000
    474 C          14.7267   -6.8672    9.8242 ca      1  CNT         0.000000
    475 C          15.0122   -6.2183   11.0522 ca      1  CNT         0.000000
    476 C          15.4970   -4.8862   11.0522 ca      1  CNT         0.000000
    477 C          15.6954   -4.2056    9.8242 ca      1  CNT         0.000000
    478 C          16.0022   -2.8216    9.8242 ca      1  CNT         0.000000
    479 C          16.1101   -2.1209   11.0522 ca      1  CNT         0.000000
    480 C          16.2336   -0.7088   11.0522 ca      1  CNT         0.000000
    481 C          16.2491    0.0000   12.2802 ca      1  CNT         0.000000
    482 C          16.1873    1.4162   12.2802 ca      1  CNT         0.000000
    483 C          16.1101    2.1209   13.5083 ca      1  CNT         0.000000
    484 C          15.8639    3.5169   13.5083 ca      1  CNT         0.000000
    485 C          15.6954    4.2056   12.2802 ca      1  CNT         0.000000
    486 C          15.2691    5.5575   12.2802 ca      1  CNT         0.000000
    487 C          15.0122    6.2183   13.5083 ca      1  CNT         0.000000
    488 C          14.4131    7.5030   13.5083 ca      1  CNT         0.000000
    489 C          14.0721    8.1245   12.2802 ca      1  CNT         0.000000
    490 C          13.3105    9.3201   12.2802 ca      1  CNT         0.000000
    491 C          12.8913    9.8918   13.5083 ca      1  CNT         0.000000
    492 C          11.9801   10.9777   13.5083 ca      1  CNT         0.000000
    493 C          11.4898   11.4898   12.2802 ca      1  CNT         0.000000
    494 C          10.4447   12.4475   12.2802 ca      1  CNT         0.000000
    495 C           9.8918   12.8913   13.5083 ca      1  CNT         0.000000
    496 C           8.7306   13.7043   13.5083 ca      1  CNT         0.000000
    497 C           8.1245   14.0721   12.2802 ca      1  CNT         0.000000
    498 C           6.8672   14.7267   12.2802 ca      1  CNT         0.000000
    499 C           6.2183   15.0122   13.5083 ca      1  CNT         0.000000
    500 C           4.8862   15.4970   13.5083 ca      1  CNT         0.000000
    501 C           4.2056   15.6954   12.2802 ca      1  CNT         0.000000
    502 C           2.8216   16.0022   12.2802 ca      1  CNT         0.000000
    503 C           2.1209   16.1101   13.5083 ca      1  CNT         0.000000
    504 C           0.7088   16.2336   13.5083 ca      1  CNT         0.000000
    505 C          -0.0000   16.2491   12.2802 ca      1  CNT         0.000000
    506 C          -1.4162   16.1873   12.2802 ca      1  CNT         0.000000
    507 C          -2.1209   16.1101   13.5083 ca      1  CNT         0.000000
    508 C          -3.5169   15.8639   13.5083 ca      1  CNT         0.000000
    509 C          -4.2056   15.6954   12.2802 ca      1  CNT         0.000000
    510 C          -5.5575   15.2691   12.2802 ca      1  CNT         0.000000
    511 C          -6.2183   15.0122   13.5083 ca      1  CNT         0.000000
    512 C          -7.5030   14.4131   13.5083 ca      1  CNT         0.000000
    513 C          -8.1245   14.0721   12.2802 ca      1  CNT         0.000000
    514 C          -9.3201   13.3105   12.2802 ca      1  CNT         0.000000
    515 C          -9.8918   12.8913   13.5083 ca      1  CNT         0.000000
    516 C         -10.9777   11.9801   13.5083 ca      1  CNT         0.000000
    517 C         -11.4898   11.4898   12.2802 ca      1  CNT         0.000000
    518 C         -12.4475   10.4447   12.2802 ca      1  CNT         0.000000
    519 C         -12.8913    9.8918   13.5083 ca      1  CNT         0.000000
    520 C         -13.7043    8.7306   13.5083 ca      1  CNT         0.000000
    521 C         -14.0721    8.1245   12.2802 ca      1  CNT         0.000000
    522 C         -14.7267    6.8672   12.2802 ca      1  CNT         0.000000
    523 C         -15.0122    6.2183   13.5083 ca      1  CNT         0.000000
    524 C         -15.4970    4.8862   13.5083 ca      1  CNT         0.000000
    525 C         -15.6954    4.2056   12.2802 ca      1  CNT         0.000000
    526 C         -16.0022    2.8216   12.2802 ca      1  CNT         0.000000
    527 C         -16.1101    2.1209   13.5083 ca      1  CNT         0.000000
    528 C         -16.2336    0.7088   13.5083 ca      1  CNT         0.000000
    529 C         -16.2491   -0.0000   12.2802 ca      1  CNT         0.000000
    530 C         -16.1873   -1.4162   12.2802 ca      1  CNT         0.000000
    531 C         -16.1101   -2.1209   13.5083 ca      1  CNT         0.000000
    532 C         -15.8639   -3.5169   13.5083 ca      1  CNT         0.000000
    533 C         -15.6954   -4.2056   12.2802 ca      1  CNT         0.000000
    534 C         -15.2691   -5.5575   12.2802 ca      1  CNT         0.000000
    535 C         -15.0122   -6.2183   13.5083 ca      1  CNT         0.000000
    536 C         -14.4131   -7.5030   13.5083 ca      1  CNT         0.000000
    537 C         -14.0721   -8.1245   12.2802 ca      1  CNT         0.000000
    538 C         -13.3105   -9.3201   12.2802 ca      1  CNT         0.000000
    539 C         -12.8913   -9.8918   13.5083 ca      1  CNT         0.000000
    540 C         -11.9801  -10.9777   13.5083 ca      1  CNT         0.000000
    541 C         -11.4898  -11.4898   12.2802 ca      1  CNT         0.000000
    542 C         -10.4447  -12.4475   12.2802 ca      1  CNT         0.000000
    543 C          -9.8918  -12.8913   13.5083 ca      1  CNT         0.000000
    544 C          -8.7306  -13.7043   13.5083 ca      1  CNT         0.000000
    545 C          -8.1245  -14.0721   12.2802 ca      1  CNT         0.000000
    546 C          -6.8672  -14.7267   12.2802 ca      1  CNT         0.000000
    547 C          -6.2183  -15.0122   13.5083 ca      1  CNT         0.000000
    548 C          -4.8862  -15.4970   13.5083 ca      1  CNT         0.000000
    549 C          -4.2056  -15.6954   12.2802 ca      1  CNT         0.000000
    550 C          -2.8216  -16.0022   12.2802 ca      1  CNT         0.000000
    551 C          -2.1209  -16.1101   13.5083 ca      1  CNT         0.000000
    552 C          -0.7088  -16.2336   13.5083 ca      1  CNT         0.000000
    553 C           0.0000  -16.2491   12.2802 ca      1  CNT         0.000000
    554 C           1.4162  -16.1873   12.2802 ca      1  CNT         0.000000
    555 C           2.1209  -16.1101   13.5083 ca      1  CNT         0.000000
    556 C           3.5169  -15.8639   13.5083 ca      1  CNT         0.000000
    557 C           4.2056  -15.6954   12.2802 ca      1  CNT         0.000000
    558 C           5.5575  -15.2691   12.2802 ca      1  CNT         0.000000
    559 C           6.2183  -15.0122   13.5083 ca      1  CNT         0.000000
    560 C           7.5030  -14.4131   13.5083 ca      1  CNT         0.000000
    561 C           8.1245  -14.0721   12.2802 ca      1  CNT         0.000000
    562 C           9.3201  -13.3105   12.2802 ca      1  CNT         0.000000
    563 C           9.8918  -12.8913   13.5083 ca      1  CNT         0.000000
    564 C          10.9777  -11.9801   13.5083 ca      1  CNT         0.000000
    565 C          11.4898  -11.4898   12.2802 ca      1  CNT         0.000000
    566 C          12.4475  -10.4447   12.2802 ca      1  CNT         0.000000
    567 C          12.8913   -9.8918   13.5083 ca      1  CNT         0.000000
    568 C          13.7043   -8.7306   13.5083 ca      1  CNT         0.000000
    569 C          14.0721   -8.1245   12.2802 ca      1  CNT         0.000000
    570 C          14.7267   -6.8672   12.2802 ca      1  CNT         0.000000
    571 C          15.0122   -6.2183   13.5083 ca      1  CNT         0.000000
    572 C          15.4970   -4.8862   13.5083 ca      1  CNT         0.000000
    573 C          15.6954   -4.2056   12.2802 ca      1  CNT         0.000000
    574 C          16.0022   -2.8216   12.2802 ca      1  CNT         0.000000
    575 C          16.1101   -2.1209   13.5083 ca      1  CNT         0.000000
    576 C          16.2336   -0.7088   13.5083 ca      1  CNT         0.000000
    577 C          16.2491    0.0000   14.7363 ca      1  CNT         0.000000
    578 C          16.1873    1.4162   14.7363 ca      1  CNT         0.000000
    579 C          16.1101    2.1209   15.9643 ca      1  CNT         0.000000
    580 C          15.8639    3.5169   15.9643 ca      1  CNT         0.000000
    581 C          15.6954    4.2056   14.7363 ca      1  CNT         0.000000
    582 C          15.2691    5.5575   14.7363 ca      1  CNT         0.000000
    583 C          15.0122    6.2183   15.9643 ca      1  CNT         0.000000
    584 C          14.4131    7.5030   15.9643 ca      1  CNT         0.000000
    585 C          14.0721    8.1245   14.7363 ca      1  CNT         0.000000
    586 C          13.3105    9.3201   14.7363 ca      1  CNT         0.000000
    587 C          12.8913    9.8918   15.9643 ca      1  CNT         0.000000
    588 C          11.9801   10.9777   15.9643 ca      1  CNT         0.000000
    589 C          11.4898   11.4898   14.7363 ca      1  CNT         0.000000
    590 C          10.4447   12.4475   14.7363 ca      1  CNT         0.000000
    591 C           9.8918   12.8913   15.9643 ca      1  CNT         0.000000
    592 C           8.7306   13.7043   15.9643 ca      1  CNT         0.000000
    593 C           8.1245   14.0721   14.7363 ca      1  CNT         0.000000
    594 C           6.8672   14.7267   14.7363 ca      1  CNT         0.000000
    595 C           6.2183   15.0122   15.9643 ca      1  CNT         0.000000
    596 C           4.8862   15.4970   15.9643 ca      1  CNT         0.000000
    597 C           4.2056   15.6954   14.7363 ca      1  CNT         0.000000
    598 C           2.8216   16.0022   14.7363 ca      1  CNT         0.000000
    599 C           2.1209   16.1101   15.9643 ca      1  CNT         0.000000
    600 C           0.7088   16.2336   15.9643 ca      1  CNT         0.000000
    601 C          -0.0000   16.2491   14.7363 ca      1  CNT         0.000000
    602 C          -1.4162   16.1873   14.7363 ca      1  CNT         0.000000
    603 C          -2.1209   16.1101   15.9643 ca      1  CNT         0.000000
    604 C          -3.5169   15.8639   15.9643 ca      1  CNT         0.000000
    605 C          -4.2056   15.6954   14.7363 ca      1  CNT         0.000000
    606 C          -5.5575   15.2691   14.7363 ca      1  CNT         0.000000
    607 C          -6.2183   15.0122   15.9643 ca      1  CNT         0.000000
    608 C          -7.5030   14.4131   15.9643 ca      1  CNT         0.000000
    609 C          -8.1245   14.0721   14.7363 ca      1  CNT         0.000000
    610 C          -9.3201   13.3105   14.7363 ca      1  CNT         0.000000
    611 C          -9.8918   12.8913   15.9643 ca      1  CNT         0.000000
    612 C         -10.9777   11.9801   15.9643 ca      1  CNT         0.000000
    613 C         -11.4898   11.4898   14.7363 ca      1  CNT         0.000000
    614 C         -12.4475   10.4447   14.7363 ca      1  CNT         0.000000
    615 C         -12.8913    9.8918   15.9643 ca      1  CNT         0.000000
    616 C         -13.7043    8.7306   15.9643 ca      1  CNT         0.000000
    617 C         -14.0721    8.1245   14.7363 ca      1  CNT         0.000000
    618 C         -14.7267    6.8672   14.7363 ca      1  CNT         0.000000
    619 C         -15.0122    6.2183   15.9643 ca      1  CNT         0.000000
    620 C         -15.4970    4.8862   15.9643 ca      1  CNT         0.000000
    621 C         -15.6954    4.2056   14.7363 ca      1  CNT         0.000000
    622 C         -16.0022    2.8216   14.7363 ca      1  CNT         0.000000
    623 C         -16.1101    2.1209   15.9643 ca      1  CNT         0.000000
    624 C         -16.2336    0.7088   15.9643 ca      1  CNT         0.000000
    625 C         -16.2491   -0.0000   14.7363 ca      1  CNT         0.000000
    626 C         -16.1873   -1.4162   14.7363 ca      1  CNT         0.000000
    627 C         -16.1101   -2.1209   15.9643 ca      1  CNT         0.000000
    628 C         -15.8639   -3.5169   15.9643 ca      1  CNT         0.000000
    629 C         -15.6954   -4.2056   14.7363 ca      1  CNT         0.000000
    630 C         -15.2691   -5.5575   14.7363 ca      1  CNT         0.000000
    631 C         -15.0122   -6.2183   15.9643 ca      1  CNT         0.000000
    632 C         -14.4131   -7.5030   15.9643 ca      1  CNT         0.000000
    633 C         -14.0721   -8.1245   14.7363 ca      1  CNT         0.000000
    634 C         -13.3105   -9.3201   14.7363 ca      1  CNT         0.000000
    635 C         -12.8913   -9.8918   15.9643 ca      1  CNT         0.000000
    636 C         -11.9801  -10.9777   15.9643 ca      1  CNT         0.000000
    637 C         -11.4898  -11.4898   14.7363 ca      1  CNT         0.000000
    638 C         -10.4447  -12.4475   14.7363 ca      1  CNT         0.000000
    639 C          -9.8918  -12.8913   15.9643 ca      1  CNT         0.000000
    640 C          -8.7306  -13.7043   15.9643 ca      1  CNT         0.000000
    641 C          -8.1245  -14.0721   14.7363 ca      1  CNT         0.000000
    642 C          -6.8672  -14.7267   14.7363 ca      1  CNT         0.000000
    643 C          -6.2183  -15.0122   15.9643 ca      1  CNT         0.000000
    644 C          -4.8862  -15.4970   15.9643 ca      1  CNT         0.000000
    645 C          -4.2056  -15.6954   14.7363 ca      1  CNT         0.000000
    646 C          -2.8216  -16.0022   14.7363 ca      1  CNT         0.000000
    647 C          -2.1209  -16.1101   15.9643 ca      1  CNT         0.000000
    648 C          -0.7088  -16.2336   15.9643 ca      1  CNT         0.000000
    649 C           0.0000  -16.2491   14.7363 ca      1  CNT         0.000000
    650 C           1.4162  -16.1873   14.7363 ca      1  CNT         0.000000
    651 C           2.1209  -16.1101   15.9643 ca      1  CNT         0.000000
    652 C           3.5169  -15.8639   15.9643 ca      1  CNT         0.000000
    653 C           4.2056  -15.6954   14.7363 ca      1  CNT         0.000000
    654 C           5.5575  -15.2691   14.7363 ca      1  CNT         0.000000
    655 C           6.2183  -15.0122   15.9643 ca      1  CNT         0.000000
    656 C           7.5030  -14.4131   15.9643 ca      1  CNT         0.000000
    657 C           8.1245  -14.0721   14.7363 ca      1  CNT         0.000000
    658 C           9.3201  -13.3105   14.7363 ca      1  CNT         0.000000
    659 C           9.8918  -12.8913   15.9643 ca      1  CNT         0.000000
    660 C          10.9777  -11.9801   15.9643 ca      1  CNT         0.000000
    661 C          11.4898  -11.4898   14.7363 ca      1  CNT         0.000000
    662 C          12.4475  -10.4447   14.7363 ca      1  CNT         0.000000
    663 C          12.8913   -9.8918   15.9643 ca      1  CNT         0.000000
    664 C          13.7043   -8.7306   15.9643 ca      1  CNT         0.000000
    665 C          14.0721   -8.1245   14.7363 ca      1  CNT         0.000000
    666 C          14.7267   -6.8672   14.7363 ca      1  CNT         0.000000
    667 C          15.0122   -6.2183   15.9643 ca      1  CNT         0.000000
    668 C          15.4970   -4.8862   15.9643 ca      1  CNT         0.000000
    669 C          15.6954   -4.2056   14.7363 ca      1  CNT         0.000000
    670 C          16.0022   -2.8216   14.7363 ca      1  CNT         0.000000
    671 C          16.1101   -2.1209   15.9643 ca      1  CNT         0.000000
    672 C          16.2336   -0.7088   15.9643 ca      1  CNT         0.000000
    673 C          16.2491    0.0000   17.1923 ca      1  CNT         0.000000
    674 C          16.1873    1.4162   17.1923 ca      1  CNT         0.000000
    675 C          16.1101    2.1209   18.4204 ca      1  CNT         0.000000
    676 C          15.8639    3.5169   18.4204 ca      1  CNT         0.000000
    677 C          15.6954    4.2056   17.1923 ca      1  CNT         0.000000
    678 C          15.2691    5.5575   17.1923 ca      1  CNT         0.000000
    679 C          15.0122    6.2183   18.4204 ca      1  CNT         0.000000
    680 C          14.4131    7.5030   18.4204 ca      1  CNT         0.000000
    681 C          14.0721    8.1245   17.1923 ca      1  CNT         0.000000
    682 C          13.3105    9.3201   17.1923 ca      1  CNT         0.000000
    683 C          12.8913    9.8918   18.4204 ca      1  CNT         0.000000
    684 C          11.9801   10.9777   18.4204 ca      1  CNT         0.000000
    685 C          11.4898   11.4898   17.1923 ca      1  CNT         0.000000
    686 C          10.4447   12.4475   17.1923 ca      1  CNT         0.000000
    687 C           9.8918   12.8913   18.4204 ca      1  CNT         0.000000
    688 C           8.7306   13.7043   18.4204 ca      1  CNT         0.000000
    689 C           8.1245   14.0721   17.1923 ca      1  CNT         0.000000
    690 C           6.8672   14.7267   17.1923 ca      1  CNT         0.000000
    691 C           6.2183   15.0122   18.4204 ca      1  CNT         0.000000
    692 C           4.8862   15.4970   18.4204 ca      1  CNT         0.000000
    693 C           4.2056   15.6954   17.1923 ca      1  CNT         0.000000
    694 C           2.8216   16.0022   17.1923 ca      1  CNT         0.000000
    695 C           2.1209   16.1101   18.4204 ca      1  CNT         0.000000
    696 C           0.7088   16.2336   18.4204 ca      1  CNT         0.000000
    697 C          -0.0000   16.2491   17.1923 ca      1  CNT         0.000000
    698 C          -1.4162   16.1873   17.1923 ca      1  CNT         0.000000
    699 C          -2.1209   16.1101   18.4204 ca      1  CNT         0.000000
    700 C          -3.5169   15.8639   18.4204 ca      1  CNT         0.000000
    701 C          -4.2056   15.6954   17.1923 ca      1  CNT         0.000000
    702 C          -5.5575   15.2691   17.1923 ca      1  CNT         0.000000
    703 C          -6.2183   15.0122   18.4204 ca      1  CNT         0.000000
    704 C          -7.5030   14.4131   18.4204 ca      1  CNT         0.000000
    705 C          -8.1245   14.0721   17.1923 ca      1  CNT         0.000000
    706 C          -9.3201   13.3105   17.1923 ca      1  CNT         0.000000
    707 C          -9.8918   12.8913   18.4204 ca      1  CNT         0.000000
    708 C         -10.9777   11.9801   18.4204 ca      1  CNT         0.000000
    709 C         -11.4898   11.4898   17.1923 ca      1  CNT         0.000000
    710 C         -12.4475   10.4447   17.1923 ca      1  CNT         0.000000
    711 C         -12.8913    9.8918   18.4204 ca      1  CNT         0.000000
    712 C         -13.7043    8.7306   18.4204 ca      1  CNT         0.000000
    713 C         -14.0721    8.1245   17.1923 ca      1  CNT         0.000000
    714 C         -14.7267    6.8672   17.1923 ca      1  CNT         0.000000
    715 C         -15.0122    6.2183   18.4204 ca      1  CNT         0.000000
    716 C         -15.4970    4.8862   18.4204 ca      1  CNT         0.000000
    717 C         -15.6954    4.2056   17.1923 ca      1  CNT         0.000000
    718 C         -16.0022    2.8216   17.1923 ca      1  CNT         0.000000
    719 C         -16.1101    2.1209   18.4204 ca      1  CNT         0.000000
    720 C         -16.2336    0.7088   18.4204 ca      1  CNT         0.000000
    721 C         -16.2491   -0.0000   17.1923 ca      1  CNT         0.000000
    722 C         -16.1873   -1.4162   17.1923 ca      1  CNT         0.000000
    723 C         -16.1101   -2.1209   18.4204 ca      1  CNT         0.000000
    724 C         -15.8639   -3.5169   18.4204 ca      1  CNT         0.000000
    725 C         -15.6954   -4.2056   17.1923 ca      1  CNT         0.000000
    726 C         -15.2691   -5.5575   17.1923 ca      1  CNT         0.000000
    727 C         -15.0122   -6.2183   18.4204 ca      1  CNT         0.000000
    728 C         -14.4131   -7.5030   18.4204 ca      1  CNT         0.000000
    729 C         -14.0721   -8.1245   17.1923 ca      1  CNT         0.000000
    730 C         -13.3105   -9.3201   17.1923 ca      1  CNT         0.000000
    731 C         -12.8913   -9.8918   18.4204 ca      1  CNT         0.000000
    732 C         -11.9801  -10.9777   18.4204 ca      1  CNT         0.000000
    733 C         -11.4898  -11.4898   17.1923 ca      1  CNT         0.000000
    734 C         -10.4447  -12.4475   17.1923 ca      1  CNT         0.000000
    735 C          -9.8918  -12.8913   18.4204 ca      1  CNT         0.000000
    736 C          -8.7306  -13.7043   18.4204 ca      1  CNT         0.000000
    737 C          -8.1245  -14.0721   17.1923 ca      1  CNT         0.000000
    738 C          -6.8672  -14.7267   17.1923 ca      1  CNT         0.000000
    739 C          -6.2183  -15.0122   18.4204 ca      1  CNT         0.000000
    740 C          -4.8862  -15.4970   18.4204 ca      1  CNT         0.000000
    741 C          -4.2056  -15.6954   17.1923 ca      1  CNT         0.000000
    742 C          -2.8216  -16.0022   17.1923 ca      1  CNT         0.000000
    743 C          -2.1209  -16.1101   18.4204 ca      1  CNT         0.000000
    744 C          -0.7088  -16.2336   18.4204 ca      1  CNT         0.000000
    745 C           0.0000  -16.2491   17.1923 ca      1  CNT         0.000000
    746 C           1.4162  -16.1873   17.1923 ca      1  CNT         0.000000
    747 C           2.1209  -16.1101   18.4204 ca      1  CNT         0.000000
    748 C           3.5169  -15.8639   18.4204 ca      1  CNT         0.000000
    749 C           4.2056  -15.6954   17.1923 ca      1  CNT         0.000000
    750 C           5.5575  -15.2691   17.1923 ca      1  CNT         0.000000
    751 C           6.2183  -15.0122   18.4204 ca      1  CNT         0.000000
    752 C           7.5030  -14.4131   18.4204 ca      1  CNT         0.000000
    753 C           8.1245  -14.0721   17.1923 ca      1  CNT         0.000000
    754 C           9.3201  -13.3105   17.1923 ca      1  CNT         0.000000
    755 C           9.8918  -12.8913   18.4204 ca      1  CNT         0.000000
    756 C          10.9777  -11.9801   18.4204 ca      1  CNT         0.000000
    757 C          11.4898  -11.4898   17.1923 ca      1  CNT         0.000000
    758 C          12.4475  -10.4447   17.1923 ca      1  CNT         0.000000
    759 C          12.8913   -9.8918   18.4204 ca      1  CNT         0.000000
    760 C          13.7043   -8.7306   18.4204 ca      1  CNT         0.000000
    761 C          14.0721   -8.1245   17.1923 ca      1  CNT         0.000000
    762 C          14.7267   -6.8672   17.1923 ca      1  CNT         0.000000
    763 C          15.0122   -6.2183   18.4204 ca      1  CNT         0.000000
    764 C          15.4970   -4.8862   18.4204 ca      1  CNT         0.000000
    765 C          15.6954   -4.2056   17.1923 ca      1  CNT         0.000000
    766 C          16.0022   -2.8216   17.1923 ca      1  CNT         0.000000
    767 C          16.1101   -2.1209   18.4204 ca      1  CNT         0.000000
    768 C          16.2336   -0.7088   18.4204 ca      1  CNT         0.000000
    769 C          16.2491    0.0000   19.6484 ca      1  CNT         0.000000
    770 C          16.1873    1.4162   19.6484 ca      1  CNT         0.000000
    771 C          16.1101    2.1209   20.8764 ca      1  CNT         0.000000
    772 C          15.8639    3.5169   20.8764 ca      1  CNT         0.000000
    773 C          15.6954    4.2056   19.6484 ca      1  CNT         0.000000
    774 C          15.2691    5.5575   19.6484 ca      1  CNT         0.000000
    775 C          15.0122    6.2183   20.8764 ca      1  CNT         0.000000
    776 C          14.4131    7.5030   20.8764 ca      1  CNT         0.000000
    777 C          14.0721    8.1245   19.6484 ca      1  CNT         0.000000
    778 C          13.3105    9.3201   19.6484 ca      1  CNT         0.000000
    779 C          12.8913    9.8918   20.8764 ca      1  CNT         0.000000
    780 C          11.9801   10.9777   20.8764 ca      1  CNT         0.000000
    781 C          11.4898   11.4898   19.6484 ca      1  CNT         0.000000
    782 C          10.4447   12.4475   19.6484 ca      1  CNT         0.000000
    783 C           9.8918   12.8913   20.8764 ca      1  CNT         0.000000
    784 C           8.7306   13.7043   20.8764 ca      1  CNT         0.000000
    785 C           8.1245   14.0721   19.6484 ca      1  CNT         0.000000
    786 C           6.8672   14.7267   19.6484 ca      1  CNT         0.000000
    787 C           6.2183   15.0122   20.8764 ca      1  CNT         0.000000
    788 C           4.8862   15.4970   20.8764 ca      1  CNT         0.000000
    789 C           4.2056   15.6954   19.6484 ca      1  CNT         0.000000
    790 C           2.8216   16.0022   19.6484 ca      1  CNT         0.000000
    791 C           2.1209   16.1101   20.8764 ca      1  CNT         0.000000
    792 C           0.7088   16.2336   20.8764 ca      1  CNT         0.000000
    793 C          -0.0000   16.2491   19.6484 ca      1  CNT         0.000000
    794 C          -1.4162   16.1873   19.6484 ca      1  CNT         0.000000
    795 C          -2.1209   16.1101   20.8764 ca      1  CNT         0.000000
    796 C          -3.5169   15.8639   20.8764 ca      1  CNT         0.000000
    797 C          -4.2056   15.6954   19.6484 ca      1  CNT         0.000000
    798 C          -5.5575   15.2691   19.6484 ca      1  CNT         0.000000
    799 C          -6.2183   15.0122   20.8764 ca      1  CNT         0.000000
    800 C          -7.5030   14.4131   20.8764 ca      1  CNT         0.000000
    801 C          -8.1245   14.0721   19.6484 ca      1  CNT         0.000000
    802 C          -9.3201   13.3105   19.6484 ca      1  CNT         0.000000
    803 C          -9.8918   12.8913   20.8764 ca      1  CNT         0.000000
    804 C         -10.9777   11.9801   20.8764 ca      1  CNT         0.000000
    805 C         -11.4898   11.4898   19.6484 ca      1  CNT         0.000000
    806 C         -12.4475   10.4447   19.6484 ca      1  CNT         0.000000
    807 C         -12.8913    9.8918   20.8764 ca      1  CNT         0.000000
    808 C         -13.7043    8.7306   20.8764 ca      1  CNT         0.000000
    809 C         -14.0721    8.1245   19.6484 ca      1  CNT         0.000000
    810 C         -14.7267    6.8672   19.6484 ca      1  CNT         0.000000
    811 C         -15.0122    6.2183   20.8764 ca      1  CNT         0.000000
    812 C         -15.4970    4.8862   20.8764 ca      1  CNT         0.000000
    813 C         -15.6954    4.2056   19.6484 ca      1  CNT         0.000000
    814 C         -16.0022    2.8216   19.6484 ca      1  CNT         0.000000
    815 C         -16.1101    2.1209   20.8764 ca      1  CNT         0.000000
    816 C         -16.2336    0.7088   20.8764 ca      1  CNT         0.000000
    817 C         -16.2491   -0.0000   19.6484 ca      1  CNT         0.000000
    818 C         -16.1873   -1.4162   19.6484 ca      1  CNT         0.000000
    819 C         -16.1101   -2.1209   20.8764 ca      1  CNT         0.000000
    820 C         -15.8639   -3.5169   20.8764 ca      1  CNT         0.000000
    821 C         -15.6954   -4.2056   19.6484 ca      1  CNT         0.000000
    822 C         -15.2691   -5.5575   19.6484 ca      1  CNT         0.000000
    823 C         -15.0122   -6.2183   20.8764 ca      1  CNT         0.000000
    824 C         -14.4131   -7.5030   20.8764 ca      1  CNT         0.000000
    825 C         -14.0721   -8.1245   19.6484 ca      1  CNT         0.000000
    826 C         -13.3105   -9.3201   19.6484 ca      1  CNT         0.000000
    827 C         -12.8913   -9.8918   20.8764 ca      1  CNT         0.000000
    828 C         -11.9801  -10.9777   20.8764 ca      1  CNT         0.000000
    829 C         -11.4898  -11.4898   19.6484 ca      1  CNT         0.000000
    830 C         -10.4447  -12.4475   19.6484 ca      1  CNT         0.000000
    831 C          -9.8918  -12.8913   20.8764 ca      1  CNT         0.000000
    832 C          -8.7306  -13.7043   20.8764 ca      1  CNT         0.000000
    833 C          -8.1245  -14.0721   19.6484 ca      1  CNT         0.000000
    834 C          -6.8672  -14.7267   19.6484 ca      1  CNT         0.000000
    835 C          -6.2183  -15.0122   20.8764 ca      1  CNT         0.000000
    836 C          -4.8862  -15.4970   20.8764 ca      1  CNT         0.000000
    837 C          -4.2056  -15.6954   19.6484 ca      1  CNT         0.000000
    838 C          -2.8216  -16.0022   19.6484 ca      1  CNT         0.000000
    839 C          -2.1209  -16.1101   20.8764 ca      1  CNT         0.000000
    840 C          -0.7088  -16.2336   20.8764 ca      1  CNT         0.000000
    841 C           0.0000  -16.2491   19.6484 ca      1  CNT         0.000000
    842 C           1.4162  -16.1873   19.6484 ca      1  CNT         0.000000
    843 C           2.1209  -16.1101   20.8764 ca      1  CNT         0.000000
    844 C           3.5169  -15.8639   20.8764 ca      1  CNT         0.000000
    845 C           4.2056  -15.6954   19.6484 ca      1  CNT         0.000000
    846 C           5.5575  -15.2691   19.6484 ca      1  CNT         0.000000
    847 C           6.2183  -15.0122   20.8764 ca      1  CNT         0.000000
    848 C           7.5030  -14.4131   20.8764 ca      1  CNT         0.000000
    849 C           8.1245  -14.0721   19.6484 ca      1  CNT         0.000000
    850 C           9.3201  -13.3105   19.6484 ca      1  CNT         0.000000
    851 C           9.8918  -12.8913   20.8764 ca      1  CNT         0.000000
    852 C          10.9777  -11.9801   20.8764 ca      1  CNT         0.000000
    853 C          11.4898  -11.4898   19.6484 ca      1  CNT         0.000000
    854 C          12.4475  -10.4447   19.6484 ca      1  CNT         0.000000
    855 C          12.8913   -9.8918   20.8764 ca      1  CNT         0.000000
    856 C          13.7043   -8.7306   20.8764 ca      1  CNT         0.000000
    857 C          14.0721   -8.1245   19.6484 ca      1  CNT         0.000000
    858 C          14.7267   -6.8672   19.6484 ca      1  CNT         0.000000
    859 C          15.0122   -6.2183   20.8764 ca      1  CNT         0.000000
    860 C          15.4970   -4.8862   20.8764 ca      1  CNT         0.000000
    861 C          15.6954   -4.2056   19.6484 ca      1  CNT         0.000000
    862 C          16.0022   -2.8216   19.6484 ca      1  CNT         0.000000
    863 C          16.1101   -2.1209   20.8764 ca      1  CNT         0.000000
    864 C          16.2336   -0.7088   20.8764 ca      1  CNT         0.000000
    865 C          16.2491    0.0000   22.1044 ca      1  CNT         0.000000
    866 C          16.1873    1.4162   22.1044 ca      1  CNT         0.000000
    867 C          16.1101    2.1209   23.3325 ca      1  CNT         0.000000
    868 C          15.8639    3.5169   23.3325 ca      1  CNT         0.000000
    869 C          15.6954    4.2056   22.1044 ca      1  CNT         0.000000
    870 C          15.2691    5.5575   22.1044 ca      1  CNT         0.000000
    871 C          15.0122    6.2183   23.3325 ca      1  CNT         0.000000
    872 C          14.4131    7.5030   23.3325 ca      1  CNT         0.000000
    873 C          14.0721    8.1245   22.1044 ca      1  CNT         0.000000
    874 C          13.3105    9.3201   22.1044 ca      1  CNT         0.000000
    875 C          12.8913    9.8918   23.3325 ca      1  CNT         0.000000
    876 C          11.9801   10.9777   23.3325 ca      1  CNT         0.000000
    877 C          11.4898   11.4898   22.1044 ca      1  CNT         0.000000
    878 C          10.4447   12.4475   22.1044 ca      1  CNT         0.000000
    879 C           9.8918   12.8913   23.3325 ca      1  CNT         0.000000
    880 C           8.7306   13.7043   23.3325 ca      1  CNT         0.000000
    881 C           8.1245   14.0721   22.1044 ca      1  CNT         0.000000
    882 C           6.8672   14.7267   22.1044 ca      1  CNT         0.000000
    883 C           6.2183   15.0122   23.3325 ca      1  CNT         0.000000
    884 C           4.8862   15.4970   23.3325 ca      1  CNT         0.000000
    885 C           4.2056   15.6954   22.1044 ca      1  CNT         0.000000
    886 C           2.8216   16.0022   22.1044 ca      1  CNT         0.000000
    887 C           2.1209   16.1101   23.3325 ca      1  CNT         0.000000
    888 C           0.7088   16.2336   23.3325 ca      1  CNT         0.000000
    889 C          -0.0000   16.2491   22.1044 ca      1  CNT         0.000000
    890 C          -1.4162   16.1873   22.1044 ca      1  CNT         0.000000
    891 C          -2.1209   16.1101   23.3325 ca      1  CNT         0.000000
    892 C          -3.5169   15.8639   23.3325 ca      1  CNT         0.000000
    893 C          -4.2056   15.6954   22.1044 ca      1  CNT         0.000000
    894 C          -5.5575   15.2691   22.1044 ca      1  CNT         0.000000
    895 C          -6.2183   15.0122   23.3325 ca      1  CNT         0.000000
    896 C          -7.5030   14.4131   23.3325 ca      1  CNT         0.000000
    897 C          -8.1245   14.0721   22.1044 ca      1  CNT         0.000000
    898 C          -9.3201   13.3105   22.1044 ca      1  CNT         0.000000
    899 C          -9.8918   12.8913   23.3325 ca      1  CNT         0.000000
    900 C         -10.9777   11.9801   23.3325 ca      1  CNT         0.000000
    901 C         -11.4898   11.4898   22.1044 ca      1  CNT         0.000000
    902 C         -12.4475   10.4447   22.1044 ca      1  CNT         0.000000
    903 C         -12.8913    9.8918   23.3325 ca      1  CNT         0.000000
    904 C         -13.7043    8.7306   23.3325 ca      1  CNT         0.000000
    905 C         -14.0721    8.1245   22.1044 ca      1  CNT         0.000000
    906 C         -14.7267    6.8672   22.1044 ca      1  CNT         0.000000
    907 C         -15.0122    6.2183   23.3325 ca      1  CNT         0.000000
    908 C         -15.4970    4.8862   23.3325 ca      1  CNT         0.000000
    909 C         -15.6954    4.2056   22.1044 ca      1  CNT         0.000000
    910 C         -16.0022    2.8216   22.1044 ca      1  CNT         0.000000
    911 C         -16.1101    2.1209   23.3325 ca      1  CNT         0.000000
    912 C         -16.2336    0.7088   23.3325 ca      1  CNT         0.000000
    913 C         -16.2491   -0.0000   22.1044 ca      1  CNT         0.000000
    914 C         -16.1873   -1.4162   22.1044 ca      1  CNT         0.000000
    915 C         -16.1101   -2.1209   23.3325 ca      1  CNT         0.000000
    916 C         -15.8639   -3.5169   23.3325 ca      1  CNT         0.000000
    917 C         -15.6954   -4.2056   22.1044 ca      1  CNT         0.000000
    918 C         -15.2691   -5.5575   22.1044 ca      1  CNT         0.000000
    919 C         -15.0122   -6.2183   23.3325 ca      1  CNT         0.000000
    920 C         -14.4131   -7.5030   23.3325 ca      1  CNT         0.000000
    921 C         -14.0721   -8.1245   22.1044 ca      1  CNT         0.000000
    922 C         -13.3105   -9.3201   22.1044 ca      1  CNT         0.000000
    923 C         -12.8913   -9.8918   23.3325 ca      1  CNT         0.000000
    924 C         -11.9801  -10.9777   23.3325 ca      1  CNT         0.000000
    925 C         -11.4898  -11.4898   22.1044 ca      1  CNT         0.000000
    926 C         -10.4447  -12.4475   22.1044 ca      1  CNT         0.000000
    927 C          -9.8918  -12.8913   23.3325 ca      1  CNT         0.000000
    928 C          -8.7306  -13.7043   23.3325 ca      1  CNT         0.000000
    929 C          -8.1245  -14.0721   22.1044 ca      1  CNT         0.000000
    930 C          -6.8672  -14.7267   22.1044 ca      1  CNT         0.000000
    931 C          -6.2183  -15.0122   23.3325 ca      1  CNT         0.000000
    932 C          -4.8862  -15.4970   23.3325 ca      1  CNT         0.000000
    933 C          -4.2056  -15.6954   22.1044 ca      1  CNT         0.000000
    934 C          -2.8216  -16.0022   22.1044 ca      1  CNT         0.000000
    935 C          -2.1209  -16.1101   23.3325 ca      1  CNT         0.000000
    936 C          -0.7088  -16.2336   23.3325 ca      1  CNT         0.000000
    937 C           0.0000  -16.2491   22.1044 ca      1  CNT         0.000000
    938 C           1.4162  -16.1873   22.1044 ca      1  CNT         0.000000
    939 C           2.1209  -16.1101   23.3325 ca      1  CNT         0.000000
    940 C           3.5169  -15.8639   23.3325 ca      1  CNT         0.000000
    941 C           4.2056  -15.6954   22.1044 ca      1  CNT         0.000000
    942 C           5.5575  -15.2691   22.1044 ca      1  CNT         0.000000
    943 C           6.2183  -15.0122   23.3325 ca      1  CNT         0.000000
    944 C           7.5030  -14.4131   23.3325 ca      1  CNT         0.000000
    945 C           8.1245  -14.0721   22.1044 ca      1  CNT         0.000000
    946 C           9.3201  -13.3105   22.1044 ca      1  CNT         0.000000
    947 C           9.8918  -12.8913   23.3325 ca      1  CNT         0.000000
    948 C          10.9777  -11.9801   23.3325 ca      1  CNT         0.000000
    949 C          11.4898  -11.4898   22.1044 ca      1  CNT         0.000000
    950 C          12.4475  -10.4447   22.1044 ca      1  CNT         0.000000
    951 C          12.8913   -9.8918   23.3325 ca      1  CNT         0.000000
    952 C          13.7043   -8.7306   23.3325 ca      1  CNT         0.000000
    953 C          14.0721   -8.1245   22.1044 ca      1  CNT         0.000000
    954 C          14.7267   -6.8672   22.1044 ca      1  CNT         0.000000
    955 C          15.0122   -6.2183   23.3325 ca      1  CNT         0.000000
    956 C          15.4970   -4.8862   23.3325 ca      1  CNT         0.000000
    957 C          15.6954   -4.2056   22.1044 ca      1  CNT         0.000000
    958 C          16.0022   -2.8216   22.1044 ca      1  CNT         0.000000
    959 C          16.1101   -2.1209   23.3325 ca      1  CNT         0.000000
    960 C          16.2336   -0.7088   23.3325 ca      1  CNT         0.000000
    961 C          16.2491    0.0000   24.5605 ca      1  CNT         0.000000
    962 C          16.1873    1.4162   24.5605 ca      1  CNT         0.000000
    963 C          16.1101    2.1209   25.7885 ca      1  CNT         0.000000
    964 C          15.8639    3.5169   25.7885 ca      1  CNT         0.000000
    965 C          15.6954    4.2056   24.5605 ca      1  CNT         0.000000
    966 C          15.2691    5.5575   24.5605 ca      1  CNT         0.000000
    967 C          15.0122    6.2183   25.7885 ca      1  CNT         0.000000
    968 C          14.4131    7.5030   25.7885 ca      1  CNT         0.000000
    969 C          14.0721    8.1245   24.5605 ca      1  CNT         0.000000
    970 C          13.3105    9.3201   24.5605 ca      1  CNT         0.000000
    971 C          12.8913    9.8918   25.7885 ca      1  CNT         0.000000
    972 C          11.9801   10.9777   25.7885 ca      1  CNT         0.000000
    973 C          11.4898   11.4898   24.5605 ca      1  CNT         0.000000
    974 C          10.4447   12.4475   24.5605 ca      1  CNT         0.000000
    975 C           9.8918   12.8913   25.7885 ca      1  CNT         0.000000
    976 C           8.7306   13.7043   25.7885 ca      1  CNT         0.000000
    977 C           8.1245   14.0721   24.5605 ca      1  CNT         0.000000
    978 C           6.8672   14.7267   24.5605 ca      1  CNT         0.000000
    979 C           6.2183   15.0122   25.7885 ca      1  CNT         0.000000
    980 C           4.8862   15.4970   25.7885 ca      1  CNT         0.000000
    981 C           4.2056   15.6954   24.5605 ca      1  CNT         0.000000
    982 C           2.8216   16.0022   24.5605 ca      1  CNT         0.000000
    983 C           2.1209   16.1101   25.7885 ca      1  CNT         0.000000
    984 C           0.7088   16.2336   25.7885 ca      1  CNT         0.000000
    985 C          -0.0000   16.2491   24.5605 ca      1  CNT         0.000000
    986 C          -1.4162   16.1873   24.5605 ca      1  CNT         0.000000
    987 C          -2.1209   16.1101   25.7885 ca      1  CNT         0.000000
    988 C          -3.5169   15.8639   25.7885 ca      1  CNT         0.000000
    989 C          -4.2056   15.6954   24.5605 ca      1  CNT         0.000000
    990 C          -5.5575   15.2691   24.5605 ca      1  CNT         0.000000
    991 C          -6.2183   15.0122   25.7885 ca      1  CNT         0.000000
    992 C          -7.5030   14.4131   25.7885 ca      1  CNT         0.000000
    993 C          -8.1245   14.0721   24.5605 ca      1  CNT         0.000000
    994 C          -9.3201   13.3105   24.5605 ca      1  CNT         0.000000
    995 C          -9.8918   12.8913   25.7885 ca      1  CNT         0.000000
    996 C         -10.9777   11.9801   25.7885 ca      1  CNT         0.000000
    997 C         -11.4898   11.4898   24.5605 ca      1  CNT         0.000000
    998 C         -12.4475   10.4447   24.5605 ca      1  CNT         0.000000
    999 C         -12.8913    9.8918   25.7885 ca      1  CNT         0.000000
   1000 C         -13.7043    8.7306   25.7885 ca      1  CNT         0.000000
   1001 C         -14.0721    8.1245   24.5605 ca      1  CNT         0.000000
   1002 C         -14.7267    6.8672   24.5605 ca      1  CNT         0.000000
   1003 C         -15.0122    6.2183   25.7885 ca      1  CNT         0.000000
   1004 C         -15.4970    4.8862   25.7885 ca      1  CNT         0.000000
   1005 C         -15.6954    4.2056   24.5605 ca      1  CNT         0.000000
   1006 C         -16.0022    2.8216   24.5605 ca      1  CNT         0.000000
   1007 C         -16.1101    2.1209   25.7885 ca      1  CNT         0.000000
   1008 C         -16.2336    0.7088   25.7885 ca      1  CNT         0.000000
   1009 C         -16.2491   -0.0000   24.5605 ca      1  CNT         0.000000
   1010 C         -16.1873   -1.4162   24.5605 ca      1  CNT         0.000000
   1011 C         -16.1101   -2.1209   25.7885 ca      1  CNT         0.000000
   1012 C         -15.8639   -3.5169   25.7885 ca      1  CNT         0.000000
   1013 C         -15.6954   -4.2056   24.5605 ca      1  CNT         0.000000
   1014 C         -15.2691   -5.5575   24.5605 ca      1  CNT         0.000000
   1015 C         -15.0122   -6.2183   25.7885 ca      1  CNT         0.000000
   1016 C         -14.4131   -7.5030   25.7885 ca      1  CNT         0.000000
   1017 C         -14.0721   -8.1245   24.5605 ca      1  CNT         0.000000
   1018 C         -13.3105   -9.3201   24.5605 ca      1  CNT         0.000000
   1019 C         -12.8913   -9.8918   25.7885 ca      1  CNT         0.000000
   1020 C         -11.9801  -10.9777   25.7885 ca      1  CNT         0.000000
   1021 C         -11.4898  -11.4898   24.5605 ca      1  CNT         0.000000
   1022 C         -10.4447  -12.4475   24.5605 ca      1  CNT         0.000000
   1023 C          -9.8918  -12.8913   25.7885 ca      1  CNT         0.000000
   1024 C          -8.7306  -13.7043   25.7885 ca      1  CNT         0.000000
   1025 C          -8.1245  -14.0721   24.5605 ca      1  CNT         0.000000
   1026 C          -6.8672  -14.7267   24.5605 ca      1  CNT         0.000000
   1027 C          -6.2183  -15.0122   25.7885 ca      1  CNT         0.000000
   1028 C          -4.8862  -15.4970   25.7885 ca      1  CNT         0.000000
   1029 C          -4.2056  -15.6954   24.5605 ca      1  CNT         0.000000
   1030 C          -2.8216  -16.0022   24.5605 ca      1  CNT         0.000000
   1031 C          -2.1209  -16.1101   25.7885 ca      1  CNT         0.000000
   1032 C          -0.7088  -16.2336   25.7885 ca      1  CNT         0.000000
   1033 C           0.0000  -16.2491   24.5605 ca      1  CNT         0.000000
   1034 C           1.4162  -16.1873   24.5605 ca      1  CNT         0.000000
   1035 C           2.1209  -16.1101   25.7885 ca      1  CNT         0.000000
   1036 C           3.5169  -15.8639   25.7885 ca      1  CNT         0.000000
   1037 C           4.2056  -15.6954   24.5605 ca      1  CNT         0.000000
   1038 C           5.5575  -15.2691   24.5605 ca      1  CNT         0.000000
   1039 C           6.2183  -15.0122   25.7885 ca      1  CNT         0.000000
   1040 C           7.5030  -14.4131   25.7885 ca      1  CNT         0.000000
   1041 C           8.1245  -14.0721   24.5605 ca      1  CNT         0.000000
   1042 C           9.3201  -13.3105   24.5605 ca      1  CNT         0.000000
   1043 C           9.8918  -12.8913   25.7885 ca      1  CNT         0.000000
   1044 C          10.9777  -11.9801   25.7885 ca      1  CNT         0.000000
   1045 C          11.4898  -11.4898   24.5605 ca      1  CNT         0.000000
   1046 C          12.4475  -10.4447   24.5605 ca      1  CNT         0.000000
   1047 C          12.8913   -9.8918   25.7885 ca      1  CNT         0.000000
   1048 C          13.7043   -8.7306   25.7885 ca      1  CNT         0.000000
   1049 C          14.0721   -8.1245   24.5605 ca      1  CNT         0.000000
   1050 C          14.7267   -6.8672   24.5605 ca      1  CNT         0.000000
   1051 C          15.0122   -6.2183   25.7885 ca      1  CNT         0.000000
   1052 C          15.4970   -4.8862   25.7885 ca      1  CNT         0.000000
   1053 C          15.6954   -4.2056   24.5605 ca      1  CNT         0.000000
   1054 C          16.0022   -2.8216   24.5605 ca      1  CNT         0.000000
   1055 C          16.1101   -2.1209   25.7885 ca      1  CNT         0.000000
   1056 C          16.2336   -0.7088   25.7885 ca      1  CNT         0.000000
   1057 C          16.2491    0.0000   27.0165 ca      1  CNT         0.000000
   1058 C          16.1873    1.4162   27.0165 ca      1  CNT         0.000000
   1059 C          16.1101    2.1209   28.2446 ca      1  CNT         0.000000
   1060 C          15.8639    3.5169   28.2446 ca      1  CNT         0.000000
   1061 C          15.6954    4.2056   27.0165 ca      1  CNT         0.000000
   1062 C          15.2691    5.5575   27.0165 ca      1  CNT         0.000000
   1063 C          15.0122    6.2183   28.2446 ca      1  CNT         0.000000
   1064 C          14.4131    7.5030   28.2446 ca      1  CNT         0.000000
   1065 C          14.0721    8.1245   27.0165 ca      1  CNT         0.000000
   1066 C          13.3105    9.3201   27.0165 ca      1  CNT         0.000000
   1067 C          12.8913    9.8918   28.2446 ca      1  CNT         0.000000
   1068 C          11.9801   10.9777   28.2446 ca      1  CNT         0.000000
   1069 C          11.4898   11.4898   27.0165 ca      1  CNT         0.000000
   1070 C          10.4447   12.4475   27.0165 ca      1  CNT         0.000000
   1071 C           9.8918   12.8913   28.2446 ca      1  CNT         0.000000
   1072 C           8.7306   13.7043   28.2446 ca      1  CNT         0.000000
   1073 C           8.1245   14.0721   27.0165 ca      1  CNT         0.000000
   1074 C           6.8672   14.7267   27.0165 ca      1  CNT         0.000000
   1075 C           6.2183   15.0122   28.2446 ca      1  CNT         0.000000
   1076 C           4.8862   15.4970   28.2446 ca      1  CNT         0.000000
   1077 C           4.2056   15.6954   27.0165 ca      1  CNT         0.000000
   1078 C           2.8216   16.0022   27.0165 ca      1  CNT         0.000000
   1079 C           2.1209   16.1101   28.2446 ca      1  CNT         0.000000
   1080 C           0.7088   16.2336   28.2446 ca      1  CNT         0.000000
   1081 C          -0.0000   16.2491   27.0165 ca      1  CNT         0.000000
   1082 C          -1.4162   16.1873   27.0165 ca      1  CNT         0.000000
   1083 C          -2.1209   16.1101   28.2446 ca      1  CNT         0.000000
   1084 C          -3.5169   15.8639   28.2446 ca      1  CNT         0.000000
   1085 C          -4.2056   15.6954   27.0165 ca      1  CNT         0.000000
   1086 C          -5.5575   15.2691   27.0165 ca      1  CNT         0.000000
   1087 C          -6.2183   15.0122   28.2446 ca      1  CNT         0.000000
   1088 C          -7.5030   14.4131   28.2446 ca      1  CNT         0.000000
   1089 C          -8.1245   14.0721   27.0165 ca      1  CNT         0.000000
   1090 C          -9.3201   13.3105   27.0165 ca      1  CNT         0.000000
   1091 C          -9.8918   12.8913   28.2446 ca      1  CNT         0.000000
   1092 C         -10.9777   11.9801   28.2446 ca      1  CNT         0.000000
   1093 C         -11.4898   11.4898   27.0165 ca      1  CNT         0.000000
   1094 C         -12.4475   10.4447   27.0165 ca      1  CNT         0.000000
   1095 C         -12.8913    9.8918   28.2446 ca      1  CNT         0.000000
   1096 C         -13.7043    8.7306   28.2446 ca      1  CNT         0.000000
   1097 C         -14.0721    8.1245   27.0165 ca      1  CNT         0.000000
   1098 C         -14.7267    6.8672   27.0165 ca      1  CNT         0.000000
   1099 C         -15.0122    6.2183   28.2446 ca      1  CNT         0.000000
   1100 C         -15.4970    4.8862   28.2446 ca      1  CNT         0.000000
   1101 C         -15.6954    4.2056   27.0165 ca      1  CNT         0.000000
   1102 C         -16.0022    2.8216   27.0165 ca      1  CNT         0.000000
   1103 C         -16.1101    2.1209   28.2446 ca      1  CNT         0.000000
   1104 C         -16.2336    0.7088   28.2446 ca      1  CNT         0.000000
   1105 C         -16.2491   -0.0000   27.0165 ca      1  CNT         0.000000
   1106 C         -16.1873   -1.4162   27.0165 ca      1  CNT         0.000000
   1107 C         -16.1101   -2.1209   28.2446 ca      1  CNT         0.000000
   1108 C         -15.8639   -3.5169   28.2446 ca      1  CNT         0.000000
   1109 C         -15.6954   -4.2056   27.0165 ca      1  CNT         0.000000
   1110 C         -15.2691   -5.5575   27.0165 ca      1  CNT         0.000000
   1111 C         -15.0122   -6.2183   28.2446 ca      1  CNT         0.000000
   1112 C         -14.4131   -7.5030   28.2446 ca      1  CNT         0.000000
   1113 C         -14.0721   -8.1245   27.0165 ca      1  CNT         0.000000
   1114 C         -13.3105   -9.3201   27.0165 ca      1  CNT         0.000000
   1115 C         -12.8913   -9.8918   28.2446 ca      1  CNT         0.000000
   1116 C         -11.9801  -10.9777   28.2446 ca      1  CNT         0.000000
   1117 C         -11.4898  -11.4898   27.0165 ca      1  CNT         0.000000
   1118 C         -10.4447  -12.4475   27.0165 ca      1  CNT         0.000000
   1119 C          -9.8918  -12.8913   28.2446 ca      1  CNT         0.000000
   1120 C          -8.7306  -13.7043   28.2446 ca      1  CNT         0.000000
   1121 C          -8.1245  -14.0721   27.0165 ca      1  CNT         0.000000
   1122 C          -6.8672  -14.7267   27.0165 ca      1  CNT         0.000000
   1123 C          -6.2183  -15.0122   28.2446 ca      1  CNT         0.000000
   1124 C          -4.8862  -15.4970   28.2446 ca      1  CNT         0.000000
   1125 C          -4.2056  -15.6954   27.0165 ca      1  CNT         0.000000
   1126 C          -2.8216  -16.0022   27.0165 ca      1  CNT         0.000000
   1127 C          -2.1209  -16.1101   28.2446 ca      1  CNT         0.000000
   1128 C          -0.7088  -16.2336   28.2446 ca      1  CNT         0.000000
   1129 C           0.0000  -16.2491   27.0165 ca      1  CNT         0.000000
   1130 C           1.4162  -16.1873   27.0165 ca      1  CNT         0.000000
   1131 C           2.1209  -16.1101   28.2446 ca      1  CNT         0.000000
   1132 C           3.5169  -15.8639   28.2446 ca      1  CNT         0.000000
   1133 C           4.2056  -15.6954   27.0165 ca      1  CNT         0.000000
   1134 C           5.5575  -15.2691   27.0165 ca      1  CNT         0.000000
   1135 C           6.2183  -15.0122   28.2446 ca      1  CNT         0.000000
   1136 C           7.5030  -14.4131   28.2446 ca      1  CNT         0.000000
   1137 C           8.1245  -14.0721   27.0165 ca      1  CNT         0.000000
   1138 C           9.3201  -13.3105   27.0165 ca      1  CNT         0.000000
   1139 C           9.8918  -12.8913   28.2446 ca      1  CNT         0.000000
   1140 C          10.9777  -11.9801   28.2446 ca      1  CNT         0.000000
   1141 C          11.4898  -11.4898   27.0165 ca      1  CNT         0.000000
   1142 C          12.4475  -10.4447   27.0165 ca      1  CNT         0.000000
   1143 C          12.8913   -9.8918   28.2446 ca      1  CNT         0.000000
   1144 C          13.7043   -8.7306   28.2446 ca      1  CNT         0.000000
   1145 C          14.0721   -8.1245   27.0165 ca      1  CNT         0.000000
   1146 C          14.7267   -6.8672   27.0165 ca      1  CNT         0.000000
   1147 C          15.0122   -6.2183   28.2446 ca      1  CNT         0.000000
   1148 C          15.4970   -4.8862   28.2446 ca      1  CNT         0.000000
   1149 C          15.6954   -4.2056   27.0165 ca      1  CNT         0.000000
   1150 C          16.0022   -2.8216   27.0165 ca      1  CNT         0.000000
   1151 C          16.1101   -2.1209   28.2446 ca      1  CNT         0.000000
   1152 C          16.2336   -0.7088   28.2446 ca      1  CNT         0.000000
   1153 C          16.2491    0.0000   29.4726 ca      1  CNT         0.000000
   1154 C          16.1873    1.4162   29.4726 ca      1  CNT         0.000000
   1155 C          16.1101    2.1209   30.7006 ca      1  CNT         0.000000
   1156 C          15.8639    3.5169   30.7006 ca      1  CNT         0.000000
   1157 C          15.6954    4.2056   29.4726 ca      1  CNT         0.000000
   1158 C          15.2691    5.5575   29.4726 ca      1  CNT         0.000000
   1159 C          15.0122    6.2183   30.7006 ca      1  CNT         0.000000
   1160 C          14.4131    7.5030   30.7006 ca      1  CNT         0.000000
   1161 C          14.0721    8.1245   29.4726 ca      1  CNT         0.000000
   1162 C          13.3105    9.3201   29.4726 ca      1  CNT         0.000000
   1163 C          12.8913    9.8918   30.7006 ca      1  CNT         0.000000
   1164 C          11.9801   10.9777   30.7006 ca      1  CNT         0.000000
   1165 C          11.4898   11.4898   29.4726 ca      1  CNT         0.000000
   1166 C          10.4447   12.4475   29.4726 ca      1  CNT         0.000000
   1167 C           9.8918   12.8913   30.7006 ca      1  CNT         0.000000
   1168 C           8.7306   13.7043   30.7006 ca      1  CNT         0.000000
   1169 C           8.1245   14.0721   29.4726 ca      1  CNT         0.000000
   1170 C           6.8672   14.7267   29.4726 ca      1  CNT         0.000000
   1171 C           6.2183   15.0122   30.7006 ca      1  CNT         0.000000
   1172 C           4.8862   15.4970   30.7006 ca      1  CNT         0.000000
   1173 C           4.2056   15.6954   29.4726 ca      1  CNT         0.000000
   1174 C           2.8216   16.0022   29.4726 ca      1  CNT         0.000000
   1175 C           2.1209   16.1101   30.7006 ca      1  CNT         0.000000
   1176 C           0.7088   16.2336   30.7006 ca      1  CNT         0.000000
   1177 C          -0.0000   16.2491   29.4726 ca      1  CNT         0.000000
   1178 C          -1.4162   16.1873   29.4726 ca      1  CNT         0.000000
   1179 C          -2.1209   16.1101   30.7006 ca      1  CNT         0.000000
   1180 C          -3.5169   15.8639   30.7006 ca      1  CNT         0.000000
   1181 C          -4.2056   15.6954   29.4726 ca      1  CNT         0.000000
   1182 C          -5.5575   15.2691   29.4726 ca      1  CNT         0.000000
   1183 C          -6.2183   15.0122   30.7006 ca      1  CNT         0.000000
   1184 C          -7.5030   14.4131   30.7006 ca      1  CNT         0.000000
   1185 C          -8.1245   14.0721   29.4726 ca      1  CNT         0.000000
   1186 C          -9.3201   13.3105   29.4726 ca      1  CNT         0.000000
   1187 C          -9.8918   12.8913   30.7006 ca      1  CNT         0.000000
   1188 C         -10.9777   11.9801   30.7006 ca      1  CNT         0.000000
   1189 C         -11.4898   11.4898   29.4726 ca      1  CNT         0.000000
   1190 C         -12.4475   10.4447   29.4726 ca      1  CNT         0.000000
   1191 C         -12.8913    9.8918   30.7006 ca      1  CNT         0.000000
   1192 C         -13.7043    8.7306   30.7006 ca      1  CNT         0.000000
   1193 C         -14.0721    8.1245   29.4726 ca      1  CNT         0.000000
   1194 C         -14.7267    6.8672   29.4726 ca      1  CNT         0.000000
   1195 C         -15.0122    6.2183   30.7006 ca      1  CNT         0.000000
   1196 C         -15.4970    4.8862   30.7006 ca      1  CNT         0.000000
   1197 C         -15.6954    4.2056   29.4726 ca      1  CNT         0.000000
   1198 C         -16.0022    2.8216   29.4726 ca      1  CNT         0.000000
   1199 C         -16.1101    2.1209   30.7006 ca      1  CNT         0.000000
   1200 C         -16.2336    0.7088   30.7006 ca      1  CNT         0.000000
   1201 C         -16.2491   -0.0000   29.4726 ca      1  CNT         0.000000
   1202 C         -16.1873   -1.4162   29.4726 ca      1  CNT         0.000000
   1203 C         -16.1101   -2.1209   30.7006 ca      1  CNT         0.000000
   1204 C         -15.8639   -3.5169   30.7006 ca      1  CNT         0.000000
   1205 C         -15.6954   -4.2056   29.4726 ca      1  CNT         0.000000
   1206 C         -15.2691   -5.5575   29.4726 ca      1  CNT         0.000000
   1207 C         -15.0122   -6.2183   30.7006 ca      1  CNT         0.000000
   1208 C         -14.4131   -7.5030   30.7006 ca      1  CNT         0.000000
   1209 C         -14.0721   -8.1245   29.4726 ca      1  CNT         0.000000
   1210 C         -13.3105   -9.3201   29.4726 ca      1  CNT         0.000000
   1211 C         -12.8913   -9.8918   30.7006 ca      1  CNT         0.000000
   1212 C         -11.9801  -10.9777   30.7006 ca      1  CNT         0.000000
   1213 C         -11.4898  -11.4898   29.4726 ca      1  CNT         0.000000
   1214 C         -10.4447  -12.4475   29.4726 ca      1  CNT         0.000000
   1215 C          -9.8918  -12.8913   30.7006 ca      1  CNT         0.000000
   1216 C          -8.7306  -13.7043   30.7006 ca      1  CNT         0.000000
   1217 C          -8.1245  -14.0721   29.4726 ca      1  CNT         0.000000
   1218 C          -6.8672  -14.7267   29.4726 ca      1  CNT         0.000000
   1219 C          -6.2183  -15.0122   30.7006 ca      1  CNT         0.000000
   1220 C          -4.8862  -15.4970   30.7006 ca      1  CNT         0.000000
   1221 C          -4.2056  -15.6954   29.4726 ca      1  CNT         0.000000
   1222 C          -2.8216  -16.0022   29.4726 ca      1  CNT         0.000000
   1223 C          -2.1209  -16.1101   30.7006 ca      1  CNT         0.000000
   1224 C          -0.7088  -16.2336   30.7006 ca      1  CNT         0.000000
   1225 C           0.0000  -16.2491   29.4726 ca      1  CNT         0.000000
   1226 C           1.4162  -16.1873   29.4726 ca      1  CNT         0.000000
   1227 C           2.1209  -16.1101   30.7006 ca      1  CNT         0.000000
   1228 C           3.5169  -15.8639   30.7006 ca      1  CNT         0.000000
   1229 C           4.2056  -15.6954   29.4726 ca      1  CNT         0.000000
   1230 C           5.5575  -15.2691   29.4726 ca      1  CNT         0.000000
   1231 C           6.2183  -15.0122   30.7006 ca      1  CNT         0.000000
   1232 C           7.5030  -14.4131   30.7006 ca      1  CNT         0.000000
   1233 C           8.1245  -14.0721   29.4726 ca      1  CNT         0.000000
   1234 C           9.3201  -13.3105   29.4726 ca      1  CNT         0.000000
   1235 C           9.8918  -12.8913   30.7006 ca      1  CNT         0.000000
   1236 C          10.9777  -11.9801   30.7006 ca      1  CNT         0.000000
   1237 C          11.4898  -11.4898   29.4726 ca      1  CNT         0.000000
   1238 C          12.4475  -10.4447   29.4726 ca      1  CNT         0.000000
   1239 C          12.8913   -9.8918   30.7006 ca      1  CNT         0.000000
   1240 C          13.7043   -8.7306   30.7006 ca      1  CNT         0.000000
   1241 C          14.0721   -8.1245   29.4726 ca      1  CNT         0.000000
   1242 C          14.7267   -6.8672   29.4726 ca      1  CNT         0.000000
   1243 C          15.0122   -6.2183   30.7006 ca      1  CNT         0.000000
   1244 C          15.4970   -4.8862   30.7006 ca      1  CNT         0.000000
   1245 C          15.6954   -4.2056   29.4726 ca      1  CNT         0.000000
   1246 C          16.0022   -2.8216   29.4726 ca      1  CNT         0.000000
   1247 C          16.1101   -2.1209   30.7006 ca      1  CNT         0.000000
   1248 C          16.2336   -0.7088   30.7006 ca      1  CNT         0.000000
   1249 C          16.2491    0.0000   31.9286 ca      1  CNT         0.000000
   1250 C          16.1873    1.4162   31.9286 ca      1  CNT         0.000000
   1251 C          16.1101    2.1209   33.1566 ca      1  CNT         0.000000
   1252 C          15.8639    3.5169   33.1566 ca      1  CNT         0.000000
   1253 C          15.6954    4.2056   31.9286 ca      1  CNT         0.000000
   1254 C          15.2691    5.5575   31.9286 ca      1  CNT         0.000000
   1255 C          15.0122    6.2183   33.1566 ca      1  CNT         0.000000
   1256 C          14.4131    7.5030   33.1566 ca      1  CNT         0.000000
   1257 C          14.0721    8.1245   31.9286 ca      1  CNT         0.000000
   1258 C          13.3105    9.3201   31.9286 ca      1  CNT         0.000000
   1259 C          12.8913    9.8918   33.1566 ca      1  CNT         0.000000
   1260 C          11.9801   10.9777   33.1566 ca      1  CNT         0.000000
   1261 C          11.4898   11.4898   31.9286 ca      1  CNT         0.000000
   1262 C          10.4447   12.4475   31.9286 ca      1  CNT         0.000000
   1263 C           9.8918   12.8913   33.1566 ca      1  CNT         0.000000
   1264 C           8.7306   13.7043   33.1566 ca      1  CNT         0.000000
   1265 C           8.1245   14.0721   31.9286 ca      1  CNT         0.000000
   1266 C           6.8672   14.7267   31.9286 ca      1  CNT         0.000000
   1267 C           6.2183   15.0122   33.1566 ca      1  CNT         0.000000
   1268 C           4.8862   15.4970   33.1566 ca      1  CNT         0.000000
   1269 C           4.2056   15.6954   31.9286 ca      1  CNT         0.000000
   1270 C           2.8216   16.0022   31.9286 ca      1  CNT         0.000000
   1271 C           2.1209   16.1101   33.1566 ca      1  CNT         0.000000
   1272 C           0.7088   16.2336   33.1566 ca      1  CNT         0.000000
   1273 C          -0.0000   16.2491   31.9286 ca      1  CNT         0.000000
   1274 C          -1.4162   16.1873   31.9286 ca      1  CNT         0.000000
   1275 C          -2.1209   16.1101   33.1566 ca      1  CNT         0.000000
   1276 C          -3.5169   15.8639   33.1566 ca      1  CNT         0.000000
   1277 C          -4.2056   15.6954   31.9286 ca      1  CNT         0.000000
   1278 C          -5.5575   15.2691   31.9286 ca      1  CNT         0.000000
   1279 C          -6.2183   15.0122   33.1566 ca      1  CNT         0.000000
   1280 C          -7.5030   14.4131   33.1566 ca      1  CNT         0.000000
   1281 C          -8.1245   14.0721   31.9286 ca      1  CNT         0.000000
   1282 C          -9.3201   13.3105   31.9286 ca      1  CNT         0.000000
   1283 C          -9.8918   12.8913   33.1566 ca      1  CNT         0.000000
   1284 C         -10.9777   11.9801   33.1566 ca      1  CNT         0.000000
   1285 C         -11.4898   11.4898   31.9286 ca      1  CNT         0.000000
   1286 C         -12.4475   10.4447   31.9286 ca      1  CNT         0.000000
   1287 C         -12.8913    9.8918   33.1566 ca      1  CNT         0.000000
   1288 C         -13.7043    8.7306   33.1566 ca      1  CNT         0.000000
   1289 C         -14.0721    8.1245   31.9286 ca      1  CNT         0.000000
   1290 C         -14.7267    6.8672   31.9286 ca      1  CNT         0.000000
   1291 C         -15.0122    6.2183   33.1566 ca      1  CNT         0.000000
   1292 C         -15.4970    4.8862   33.1566 ca      1  CNT         0.000000
   1293 C         -15.6954    4.2056   31.9286 ca      1  CNT         0.000000
   1294 C         -16.0022    2.8216   31.9286 ca      1  CNT         0.000000
   1295 C         -16.1101    2.1209   33.1566 ca      1  CNT         0.000000
   1296 C         -16.2336    0.7088   33.1566 ca      1  CNT         0.000000
   1297 C         -16.2491   -0.0000   31.9286 ca      1  CNT         0.000000
   1298 C         -16.1873   -1.4162   31.9286 ca      1  CNT         0.000000
   1299 C         -16.1101   -2.1209   33.1566 ca      1  CNT         0.000000
   1300 C         -15.8639   -3.5169   33.1566 ca      1  CNT         0.000000
   1301 C         -15.6954   -4.2056   31.9286 ca      1  CNT         0.000000
   1302 C         -15.2691   -5.5575   31.9286 ca      1  CNT         0.000000
   1303 C         -15.0122   -6.2183   33.1566 ca      1  CNT         0.000000
   1304 C         -14.4131   -7.5030   33.1566 ca      1  CNT         0.000000
   1305 C         -14.0721   -8.1245   31.9286 ca      1  CNT         0.000000
   1306 C         -13.3105   -9.3201   31.9286 ca      1  CNT         0.000000
   1307 C         -12.8913   -9.8918   33.1566 ca      1  CNT         0.000000
   1308 C         -11.9801  -10.9777   33.1566 ca      1  CNT         0.000000
   1309 C         -11.4898  -11.4898   31.9286 ca      1  CNT         0.000000
   1310 C         -10.4447  -12.4475   31.9286 ca      1  CNT         0.000000
   1311 C          -9.8918  -12.8913   33.1566 ca      1  CNT         0.000000
   1312 C          -8.7306  -13.7043   33.1566 ca      1  CNT         0.000000
   1313 C          -8.1245  -14.0721   31.9286 ca      1  CNT         0.000000
   1314 C          -6.8672  -14.7267   31.9286 ca      1  CNT         0.000000
   1315 C          -6.2183  -15.0122   33.1566 ca      1  CNT         0.000000
   1316 C          -4.8862  -15.4970   33.1566 ca      1  CNT         0.000000
   1317 C          -4.2056  -15.6954   31.9286 ca      1  CNT         0.000000
   1318 C          -2.8216  -16.0022   31.9286 ca      1  CNT         0.000000
   1319 C          -2.1209  -16.1101   33.1566 ca      1  CNT         0.000000
   1320 C          -0.7088  -16.2336   33.1566 ca      1  CNT         0.000000
   1321 C           0.0000  -16.2491   31.9286 ca      1  CNT         0.000000
   1322 C           1.4162  -16.1873   31.9286 ca      1  CNT         0.000000
   1323 C           2.1209  -16.1101   33.1566 ca      1  CNT         0.000000
   1324 C           3.5169  -15.8639   33.1566 ca      1  CNT         0.000000
   1325 C           4.2056  -15.6954   31.9286 ca      1  CNT         0.000000
   1326 C           5.5575  -15.2691   31.9286 ca      1  CNT         0.000000
   1327 C           6.2183  -15.0122   33.1566 ca      1  CNT         0.000000
   1328 C           7.5030  -14.4131   33.1566 ca      1  CNT         0.000000
   1329 C           8.1245  -14.0721   31.9286 ca      1  CNT         0.000000
   1330 C           9.3201  -13.3105   31.9286 ca      1  CNT         0.000000
   1331 C           9.8918  -12.8913   33.1566 ca      1  CNT         0.000000
   1332 C          10.9777  -11.9801   33.1566 ca      1  CNT         0.000000
   1333 C          11.4898  -11.4898   31.9286 ca      1  CNT         0.000000
   1334 C          12.4475  -10.4447   31.9286 ca      1  CNT         0.000000
   1335 C          12.8913   -9.8918   33.1566 ca      1  CNT         0.000000
   1336 C          13.7043   -8.7306   33.1566 ca      1  CNT         0.000000
   1337 C          14.0721   -8.1245   31.9286 ca      1  CNT         0.000000
   1338 C          14.7267   -6.8672   31.9286 ca      1  CNT         0.000000
   1339 C          15.0122   -6.2183   33.1566 ca      1  CNT         0.000000
   1340 C          15.4970   -4.8862   33.1566 ca      1  CNT         0.000000
   1341 C          15.6954   -4.2056   31.9286 ca      1  CNT         0.000000
   1342 C          16.0022   -2.8216   31.9286 ca      1  CNT         0.000000
   1343 C          16.1101   -2.1209   33.1566 ca      1  CNT         0.000000
   1344 C          16.2336   -0.7088   33.1566 ca      1  CNT         0.000000
   1345 C          16.2491    0.0000   34.3847 ca      1  CNT         0.000000
   1346 C          16.1873    1.4162   34.3847 ca      1  CNT         0.000000
   1347 C          16.1101    2.1209   35.6127 ca      1  CNT         0.000000
   1348 C          15.8639    3.5169   35.6127 ca      1  CNT         0.000000
   1349 C          15.6954    4.2056   34.3847 ca      1  CNT         0.000000
   1350 C          15.2691    5.5575   34.3847 ca      1  CNT         0.000000
   1351 C          15.0122    6.2183   35.6127 ca      1  CNT         0.000000
   1352 C          14.4131    7.5030   35.6127 ca      1  CNT         0.000000
   1353 C          14.0721    8.1245   34.3847 ca      1  CNT         0.000000
   1354 C          13.3105    9.3201   34.3847 ca      1  CNT         0.000000
   1355 C          12.8913    9.8918   35.6127 ca      1  CNT         0.000000
   1356 C          11.9801   10.9777   35.6127 ca      1  CNT         0.000000
   1357 C          11.4898   11.4898   34.3847 ca      1  CNT         0.000000
   1358 C          10.4447   12.4475   34.3847 ca      1  CNT         0.000000
   1359 C           9.8918   12.8913   35.6127 ca      1  CNT         0.000000
   1360 C           8.7306   13.7043   35.6127 ca      1  CNT         0.000000
   1361 C           8.1245   14.0721   34.3847 ca      1  CNT         0.000000
   1362 C           6.8672   14.7267   34.3847 ca      1  CNT         0.000000
   1363 C           6.2183   15.0122   35.6127 ca      1  CNT         0.000000
   1364 C           4.8862   15.4970   35.6127 ca      1  CNT         0.000000
   1365 C           4.2056   15.6954   34.3847 ca      1  CNT         0.000000
   1366 C           2.8216   16.0022   34.3847 ca      1  CNT         0.000000
   1367 C           2.1209   16.1101   35.6127 ca      1  CNT         0.000000
   1368 C           0.7088   16.2336   35.6127 ca      1  CNT         0.000000
   1369 C          -0.0000   16.2491   34.3847 ca      1  CNT         0.000000
   1370 C          -1.4162   16.1873   34.3847 ca      1  CNT         0.000000
   1371 C          -2.1209   16.1101   35.6127 ca      1  CNT         0.000000
   1372 C          -3.5169   15.8639   35.6127 ca      1  CNT         0.000000
   1373 C          -4.2056   15.6954   34.3847 ca      1  CNT         0.000000
   1374 C          -5.5575   15.2691   34.3847 ca      1  CNT         0.000000
   1375 C          -6.2183   15.0122   35.6127 ca      1  CNT         0.000000
   1376 C          -7.5030   14.4131   35.6127 ca      1  CNT         0.000000
   1377 C          -8.1245   14.0721   34.3847 ca      1  CNT         0.000000
   1378 C          -9.3201   13.3105   34.3847 ca      1  CNT         0.000000
   1379 C          -9.8918   12.8913   35.6127 ca      1  CNT         0.000000
   1380 C         -10.9777   11.9801   35.6127 ca      1  CNT         0.000000
   1381 C         -11.4898   11.4898   34.3847 ca      1  CNT         0.000000
   1382 C         -12.4475   10.4447   34.3847 ca      1  CNT         0.000000
   1383 C         -12.8913    9.8918   35.6127 ca      1  CNT         0.000000
   1384 C         -13.7043    8.7306   35.6127 ca      1  CNT         0.000000
   1385 C         -14.0721    8.1245   34.3847 ca      1  CNT         0.000000
   1386 C         -14.7267    6.8672   34.3847 ca      1  CNT         0.000000
   1387 C         -15.0122    6.2183   35.6127 ca      1  CNT         0.000000
   1388 C         -15.4970    4.8862   35.6127 ca      1  CNT         0.000000
   1389 C         -15.6954    4.2056   34.3847 ca      1  CNT         0.000000
   1390 C         -16.0022    2.8216   34.3847 ca      1  CNT         0.000000
   1391 C         -16.1101    2.1209   35.6127 ca      1  CNT         0.000000
   1392 C         -16.2336    0.7088   35.6127 ca      1  CNT         0.000000
   1393 C         -16.2491   -0.0000   34.3847 ca      1  CNT         0.000000
   1394 C         -16.1873   -1.4162   34.3847 ca      1  CNT         0.000000
   1395 C         -16.1101   -2.1209   35.6127 ca      1  CNT         0.000000
   1396 C         -15.8639   -3.5169   35.6127 ca      1  CNT         0.000000
   1397 C         -15.6954   -4.2056   34.3847 ca      1  CNT         0.000000
   1398 C         -15.2691   -5.5575   34.3847 ca      1  CNT         0.000000
   1399 C         -15.0122   -6.2183   35.6127 ca      1  CNT         0.000000
   1400 C         -14.4131   -7.5030   35.6127 ca      1  CNT         0.000000
   1401 C         -14.0721   -8.1245   34.3847 ca      1  CNT         0.000000
   1402 C         -13.3105   -9.3201   34.3847 ca      1  CNT         0.000000
   1403 C         -12.8913   -9.8918   35.6127 ca      1  CNT         0.000000
   1404 C         -11.9801  -10.9777   35.6127 ca      1  CNT         0.000000
   1405 C         -11.4898  -11.4898   34.3847 ca      1  CNT         0.000000
   1406 C         -10.4447  -12.4475   34.3847 ca      1  CNT         0.000000
   1407 C          -9.8918  -12.8913   35.6127 ca      1  CNT         0.000000
   1408 C          -8.7306  -13.7043   35.6127 ca      1  CNT         0.000000
   1409 C          -8.1245  -14.0721   34.3847 ca      1  CNT         0.000000
   1410 C          -6.8672  -14.7267   34.3847 ca      1  CNT         0.000000
   1411 C          -6.2183  -15.0122   35.6127 ca      1  CNT         0.000000
   1412 C          -4.8862  -15.4970   35.6127 ca      1  CNT         0.000000
   1413 C          -4.2056  -15.6954   34.3847 ca      1  CNT         0.000000
   1414 C          -2.8216  -16.0022   34.3847 ca      1  CNT         0.000000
   1415 C          -2.1209  -16.1101   35.6127 ca      1  CNT         0.000000
   1416 C          -0.7088  -16.2336   35.6127 ca      1  CNT         0.000000
   1417 C           0.0000  -16.2491   34.3847 ca      1  CNT         0.000000
   1418 C           1.4162  -16.1873   34.3847 ca      1  CNT         0.000000
   1419 C           2.1209  -16.1101   35.6127 ca      1  CNT         0.000000
   1420 C           3.5169  -15.8639   35.6127 ca      1  CNT         0.000000
   1421 C           4.2056  -15.6954   34.3847 ca      1  CNT         0.000000
   1422 C           5.5575  -15.2691   34.3847 ca      1  CNT         0.000000
   1423 C           6.2183  -15.0122   35.6127 ca      1  CNT         0.000000
   1424 C           7.5030  -14.4131   35.6127 ca      1  CNT         0.000000
   1425 C           8.1245  -14.0721   34.3847 ca      1  CNT         0.000000
   1426 C           9.3201  -13.3105   34.3847 ca      1  CNT         0.000000
   1427 C           9.8918  -12.8913   35.6127 ca      1  CNT         0.000000
   1428 C          10.9777  -11.9801   35.6127 ca      1  CNT         0.000000
   1429 C          11.4898  -11.4898   34.3847 ca      1  CNT         0.000000
   1430 C          12.4475  -10.4447   34.3847 ca      1  CNT         0.000000
   1431 C          12.8913   -9.8918   35.6127 ca      1  CNT         0.000000
   1432 C          13.7043   -8.7306   35.6127 ca      1  CNT         0.000000
   1433 C          14.0721   -8.1245   34.3847 ca      1  CNT         0.000000
   1434 C          14.7267   -6.8672   34.3847 ca      1  CNT         0.000000
   1435 C          15.0122   -6.2183   35.6127 ca      1  CNT         0.000000
   1436 C          15.4970   -4.8862   35.6127 ca      1  CNT         0.000000
   1437 C          15.6954   -4.2056   34.3847 ca      1  CNT         0.000000
   1438 C          16.0022   -2.8216   34.3847 ca      1  CNT         0.000000
   1439 C          16.1101   -2.1209   35.6127 ca      1  CNT         0.000000
   1440 C          16.2336   -0.7088   35.6127 ca      1  CNT         0.000000
   1441 C          16.2491    0.0000   36.8407 ca      1  CNT         0.000000
   1442 C          16.1873    1.4162   36.8407 ca      1  CNT         0.000000
   1443 C          16.1101    2.1209   38.0687 ca      1  CNT         0.000000
   1444 C          15.8639    3.5169   38.0687 ca      1  CNT         0.000000
   1445 C          15.6954    4.2056   36.8407 ca      1  CNT         0.000000
   1446 C          15.2691    5.5575   36.8407 ca      1  CNT         0.000000
   1447 C          15.0122    6.2183   38.0687 ca      1  CNT         0.000000
   1448 C          14.4131    7.5030   38.0687 ca      1  CNT         0.000000
   1449 C          14.0721    8.1245   36.8407 ca      1  CNT         0.000000
   1450 C          13.3105    9.3201   36.8407 ca      1  CNT         0.000000
   1451 C          12.8913    9.8918   38.0687 ca      1  CNT         0.000000
   1452 C          11.9801   10.9777   38.0687 ca      1  CNT         0.000000
   1453 C          11.4898   11.4898   36.8407 ca      1  CNT         0.000000
   1454 C          10.4447   12.4475   36.8407 ca      1  CNT         0.000000
   1455 C           9.8918   12.8913   38.0687 ca      1  CNT         0.000000
   1456 C           8.7306   13.7043   38.0687 ca      1  CNT         0.000000
   1457 C           8.1245   14.0721   36.8407 ca      1  CNT         0.000000
   1458 C           6.8672   14.7267   36.8407 ca      1  CNT         0.000000
   1459 C           6.2183   15.0122   38.0687 ca      1  CNT         0.000000
   1460 C           4.8862   15.4970   38.0687 ca      1  CNT         0.000000
   1461 C           4.2056   15.6954   36.8407 ca      1  CNT         0.000000
   1462 C           2.8216   16.0022   36.8407 ca      1  CNT         0.000000
   1463 C           2.1209   16.1101   38.0687 ca      1  CNT         0.000000
   1464 C           0.7088   16.2336   38.0687 ca      1  CNT         0.000000
   1465 C          -0.0000   16.2491   36.8407 ca      1  CNT         0.000000
   1466 C          -1.4162   16.1873   36.8407 ca      1  CNT         0.000000
   1467 C          -2.1209   16.1101   38.0687 ca      1  CNT         0.000000
   1468 C          -3.5169   15.8639   38.0687 ca      1  CNT         0.000000
   1469 C          -4.2056   15.6954   36.8407 ca      1  CNT         0.000000
   1470 C          -5.5575   15.2691   36.8407 ca      1  CNT         0.000000
   1471 C          -6.2183   15.0122   38.0687 ca      1  CNT         0.000000
   1472 C          -7.5030   14.4131   38.0687 ca      1  CNT         0.000000
   1473 C          -8.1245   14.0721   36.8407 ca      1  CNT         0.000000
   1474 C          -9.3201   13.3105   36.8407 ca      1  CNT         0.000000
   1475 C          -9.8918   12.8913   38.0687 ca      1  CNT         0.000000
   1476 C         -10.9777   11.9801   38.0687 ca      1  CNT         0.000000
   1477 C         -11.4898   11.4898   36.8407 ca      1  CNT         0.000000
   1478 C         -12.4475   10.4447   36.8407 ca      1  CNT         0.000000
   1479 C         -12.8913    9.8918   38.0687 ca      1  CNT         0.000000
   1480 C         -13.7043    8.7306   38.0687 ca      1  CNT         0.000000
   1481 C         -14.0721    8.1245   36.8407 ca      1  CNT         0.000000
   1482 C         -14.7267    6.8672   36.8407 ca      1  CNT         0.000000
   1483 C         -15.0122    6.2183   38.0687 ca      1  CNT         0.000000
   1484 C         -15.4970    4.8862   38.0687 ca      1  CNT         0.000000
   1485 C         -15.6954    4.2056   36.8407 ca      1  CNT         0.000000
   1486 C         -16.0022    2.8216   36.8407 ca      1  CNT         0.000000
   1487 C         -16.1101    2.1209   38.0687 ca      1  CNT         0.000000
   1488 C         -16.2336    0.7088   38.0687 ca      1  CNT         0.000000
   1489 C         -16.2491   -0.0000   36.8407 ca      1  CNT         0.000000
   1490 C         -16.1873   -1.4162   36.8407 ca      1  CNT         0.000000
   1491 C         -16.1101   -2.1209   38.0687 ca      1  CNT         0.000000
   1492 C         -15.8639   -3.5169   38.0687 ca      1  CNT         0.000000
   1493 C         -15.6954   -4.2056   36.8407 ca      1  CNT         0.000000
   1494 C         -15.2691   -5.5575   36.8407 ca      1  CNT         0.000000
   1495 C         -15.0122   -6.2183   38.0687 ca      1  CNT         0.000000
   1496 C         -14.4131   -7.5030   38.0687 ca      1  CNT         0.000000
   1497 C         -14.0721   -8.1245   36.8407 ca      1  CNT         0.000000
   1498 C         -13.3105   -9.3201   36.8407 ca      1  CNT         0.000000
   1499 C         -12.8913   -9.8918   38.0687 ca      1  CNT         0.000000
   1500 C         -11.9801  -10.9777   38.0687 ca      1  CNT         0.000000
   1501 C         -11.4898  -11.4898   36.8407 ca      1  CNT         0.000000
   1502 C         -10.4447  -12.4475   36.8407 ca      1  CNT         0.000000
   1503 C          -9.8918  -12.8913   38.0687 ca      1  CNT         0.000000
   1504 C          -8.7306  -13.7043   38.0687 ca      1  CNT         0.000000
   1505 C          -8.1245  -14.0721   36.8407 ca      1  CNT         0.000000
   1506 C          -6.8672  -14.7267   36.8407 ca      1  CNT         0.000000
   1507 C          -6.2183  -15.0122   38.0687 ca      1  CNT         0.000000
   1508 C          -4.8862  -15.4970   38.0687 ca      1  CNT         0.000000
   1509 C          -4.2056  -15.6954   36.8407 ca      1  CNT         0.000000
   1510 C          -2.8216  -16.0022   36.8407 ca      1  CNT         0.000000
   1511 C          -2.1209  -16.1101   38.0687 ca      1  CNT         0.000000
   1512 C          -0.7088  -16.2336   38.0687 ca      1  CNT         0.000000
   1513 C           0.0000  -16.2491   36.8407 ca      1  CNT         0.000000
   1514 C           1.4162  -16.1873   36.8407 ca      1  CNT         0.000000
   1515 C           2.1209  -16.1101   38.0687 ca      1  CNT         0.000000
   1516 C           3.5169  -15.8639   38.0687 ca      1  CNT         0.000000
   1517 C           4.2056  -15.6954   36.8407 ca      1  CNT         0.000000
   1518 C           5.5575  -15.2691   36.8407 ca      1  CNT         0.000000
   1519 C           6.2183  -15.0122   38.0687 ca      1  CNT         0.000000
   1520 C           7.5030  -14.4131   38.0687 ca      1  CNT         0.000000
   1521 C           8.1245  -14.0721   36.8407 ca      1  CNT         0.000000
   1522 C           9.3201  -13.3105   36.8407 ca      1  CNT         0.000000
   1523 C           9.8918  -12.8913   38.0687 ca      1  CNT         0.000000
   1524 C          10.9777  -11.9801   38.0687 ca      1  CNT         0.000000
   1525 C          11.4898  -11.4898   36.8407 ca      1  CNT         0.000000
   1526 C          12.4475  -10.4447   36.8407 ca      1  CNT         0.000000
   1527 C          12.8913   -9.8918   38.0687 ca      1  CNT         0.000000
   1528 C          13.7043   -8.7306   38.0687 ca      1  CNT         0.000000
   1529 C          14.0721   -8.1245   36.8407 ca      1  CNT         0.000000
   1530 C          14.7267   -6.8672   36.8407 ca      1  CNT         0.000000
   1531 C          15.0122   -6.2183   38.0687 ca      1  CNT         0.000000
   1532 C          15.4970   -4.8862   38.0687 ca      1  CNT         0.000000
   1533 C          15.6954   -4.2056   36.8407 ca      1  CNT         0.000000
   1534 C          16.0022   -2.8216   36.8407 ca      1  CNT         0.000000
   1535 C          16.1101   -2.1209   38.0687 ca      1  CNT         0.000000
   1536 C          16.2336   -0.7088   38.0687 ca      1  CNT         0.000000
   1537 C          16.2491    0.0000   39.2968 ca      1  CNT         0.000000
   1538 C          16.1873    1.4162   39.2968 ca      1  CNT         0.000000
   1539 C          16.1101    2.1209   40.5248 ca      1  CNT         0.000000
   1540 C          15.8639    3.5169   40.5248 ca      1  CNT         0.000000
   1541 C          15.6954    4.2056   39.2968 ca      1  CNT         0.000000
   1542 C          15.2691    5.5575   39.2968 ca      1  CNT         0.000000
   1543 C          15.0122    6.2183   40.5248 ca      1  CNT         0.000000
   1544 C          14.4131    7.5030   40.5248 ca      1  CNT         0.000000
   1545 C          14.0721    8.1245   39.2968 ca      1  CNT         0.000000
   1546 C          13.3105    9.3201   39.2968 ca      1  CNT         0.000000
   1547 C          12.8913    9.8918   40.5248 ca      1  CNT         0.000000
   1548 C          11.9801   10.9777   40.5248 ca      1  CNT         0.000000
   1549 C          11.4898   11.4898   39.2968 ca      1  CNT         0.000000
   1550 C          10.4447   12.4475   39.2968 ca      1  CNT         0.000000
   1551 C           9.8918   12.8913   40.5248 ca      1  CNT         0.000000
   1552 C           8.7306   13.7043   40.5248 ca      1  CNT         0.000000
   1553 C           8.1245   14.0721   39.2968 ca      1  CNT         0.000000
   1554 C           6.8672   14.7267   39.2968 ca      1  CNT         0.000000
   1555 C           6.2183   15.0122   40.5248 ca      1  CNT         0.000000
   1556 C           4.8862   15.4970   40.5248 ca      1  CNT         0.000000
   1557 C           4.2056   15.6954   39.2968 ca      1  CNT         0.000000
   1558 C           2.8216   16.0022   39.2968 ca      1  CNT         0.000000
   1559 C           2.1209   16.1101   40.5248 ca      1  CNT         0.000000
   1560 C           0.7088   16.2336   40.5248 ca      1  CNT         0.000000
   1561 C          -0.0000   16.2491   39.2968 ca      1  CNT         0.000000
   1562 C          -1.4162   16.1873   39.2968 ca      1  CNT         0.000000
   1563 C          -2.1209   16.1101   40.5248 ca      1  CNT         0.000000
   1564 C          -3.5169   15.8639   40.5248 ca      1  CNT         0.000000
   1565 C          -4.2056   15.6954   39.2968 ca      1  CNT         0.000000
   1566 C          -5.5575   15.2691   39.2968 ca      1  CNT         0.000000
   1567 C          -6.2183   15.0122   40.5248 ca      1  CNT         0.000000
   1568 C          -7.5030   14.4131   40.5248 ca      1  CNT         0.000000
   1569 C          -8.1245   14.0721   39.2968 ca      1  CNT         0.000000
   1570 C          -9.3201   13.3105   39.2968 ca      1  CNT         0.000000
   1571 C          -9.8918   12.8913   40.5248 ca      1  CNT         0.000000
   1572 C         -10.9777   11.9801   40.5248 ca      1  CNT         0.000000
   1573 C         -11.4898   11.4898   39.2968 ca      1  CNT         0.000000
   1574 C         -12.4475   10.4447   39.2968 ca      1  CNT         0.000000
   1575 C         -12.8913    9.8918   40.5248 ca      1  CNT         0.000000
   1576 C         -13.7043    8.7306   40.5248 ca      1  CNT         0.000000
   1577 C         -14.0721    8.1245   39.2968 ca      1  CNT         0.000000
   1578 C         -14.7267    6.8672   39.2968 ca      1  CNT         0.000000
   1579 C         -15.0122    6.2183   40.5248 ca      1  CNT         0.000000
   1580 C         -15.4970    4.8862   40.5248 ca      1  CNT         0.000000
   1581 C         -15.6954    4.2056   39.2968 ca      1  CNT         0.000000
   1582 C         -16.0022    2.8216   39.2968 ca      1  CNT         0.000000
   1583 C         -16.1101    2.1209   40.5248 ca      1  CNT         0.000000
   1584 C         -16.2336    0.7088   40.5248 ca      1  CNT         0.000000
   1585 C         -16.2491   -0.0000   39.2968 ca      1  CNT         0.000000
   1586 C         -16.1873   -1.4162   39.2968 ca      1  CNT         0.000000
   1587 C         -16.1101   -2.1209   40.5248 ca      1  CNT         0.000000
   1588 C         -15.8639   -3.5169   40.5248 ca      1  CNT         0.000000
   1589 C         -15.6954   -4.2056   39.2968 ca      1  CNT         0.000000
   1590 C         -15.2691   -5.5575   39.2968 ca      1  CNT         0.000000
   1591 C         -15.0122   -6.2183   40.5248 ca      1  CNT         0.000000
   1592 C         -14.4131   -7.5030   40.5248 ca      1  CNT         0.000000
   1593 C         -14.0721   -8.1245   39.2968 ca      1  CNT         0.000000
   1594 C         -13.3105   -9.3201   39.2968 ca      1  CNT         0.000000
   1595 C         -12.8913   -9.8918   40.5248 ca      1  CNT         0.000000
   1596 C         -11.9801  -10.9777   40.5248 ca      1  CNT         0.000000
   1597 C         -11.4898  -11.4898   39.2968 ca      1  CNT         0.000000
   1598 C         -10.4447  -12.4475   39.2968 ca      1  CNT         0.000000
   1599 C          -9.8918  -12.8913   40.5248 ca      1  CNT         0.000000
   1600 C          -8.7306  -13.7043   40.5248 ca      1  CNT         0.000000
   1601 C          -8.1245  -14.0721   39.2968 ca      1  CNT         0.000000
   1602 C          -6.8672  -14.7267   39.2968 ca      1  CNT         0.000000
   1603 C          -6.2183  -15.0122   40.5248 ca      1  CNT         0.000000
   1604 C          -4.8862  -15.4970   40.5248 ca      1  CNT         0.000000
   1605 C          -4.2056  -15.6954   39.2968 ca      1  CNT         0.000000
   1606 C          -2.8216  -16.0022   39.2968 ca      1  CNT         0.000000
   1607 C          -2.1209  -16.1101   40.5248 ca      1  CNT         0.000000
   1608 C          -0.7088  -16.2336   40.5248 ca      1  CNT         0.000000
   1609 C           0.0000  -16.2491   39.2968 ca      1  CNT         0.000000
   1610 C           1.4162  -16.1873   39.2968 ca      1  CNT         0.000000
   1611 C           2.1209  -16.1101   40.5248 ca      1  CNT         0.000000
   1612 C           3.5169  -15.8639   40.5248 ca      1  CNT         0.000000
   1613 C           4.2056  -15.6954   39.2968 ca      1  CNT         0.000000
   1614 C           5.5575  -15.2691   39.2968 ca      1  CNT         0.000000
   1615 C           6.2183  -15.0122   40.5248 ca      1  CNT         0.000000
   1616 C           7.5030  -14.4131   40.5248 ca      1  CNT         0.000000
   1617 C           8.1245  -14.0721   39.2968 ca      1  CNT         0.000000
   1618 C           9.3201  -13.3105   39.2968 ca      1  CNT         0.000000
   1619 C           9.8918  -12.8913   40.5248 ca      1  CNT         0.000000
   1620 C          10.9777  -11.9801   40.5248 ca      1  CNT         0.000000
   1621 C          11.4898  -11.4898   39.2968 ca      1  CNT         0.000000
   1622 C          12.4475  -10.4447   39.2968 ca      1  CNT         0.000000
   1623 C          12.8913   -9.8918   40.5248 ca      1  CNT         0.000000
   1624 C          13.7043   -8.7306   40.5248 ca      1  CNT         0.000000
   1625 C          14.0721   -8.1245   39.2968 ca      1  CNT         0.000000
   1626 C          14.7267   -6.8672   39.2968 ca      1  CNT         0.000000
   1627 C          15.0122   -6.2183   40.5248 ca      1  CNT         0.000000
   1628 C          15.4970   -4.8862   40.5248 ca      1  CNT         0.000000
   1629 C          15.6954   -4.2056   39.2968 ca      1  CNT         0.000000
   1630 C          16.0022   -2.8216   39.2968 ca      1  CNT         0.000000
   1631 C          16.1101   -2.1209   40.5248 ca      1  CNT         0.000000
   1632 C          16.2336   -0.7088   40.5248 ca      1  CNT         0.000000
   1633 C          16.2491    0.0000   41.7528 ca      1  CNT         0.000000
   1634 C          16.1873    1.4162   41.7528 ca      1  CNT         0.000000
   1635 C          16.1101    2.1209   42.9808 ca      1  CNT         0.000000
   1636 C          15.8639    3.5169   42.9808 ca      1  CNT         0.000000
   1637 C          15.6954    4.2056   41.7528 ca      1  CNT         0.000000
   1638 C          15.2691    5.5575   41.7528 ca      1  CNT         0.000000
   1639 C          15.0122    6.2183   42.9808 ca      1  CNT         0.000000
   1640 C          14.4131    7.5030   42.9808 ca      1  CNT         0.000000
   1641 C          14.0721    8.1245   41.7528 ca      1  CNT         0.000000
   1642 C          13.3105    9.3201   41.7528 ca      1  CNT         0.000000
   1643 C          12.8913    9.8918   42.9808 ca      1  CNT         0.000000
   1644 C          11.9801   10.9777   42.9808 ca      1  CNT         0.000000
   1645 C          11.4898   11.4898   41.7528 ca      1  CNT         0.000000
   1646 C          10.4447   12.4475   41.7528 ca      1  CNT         0.000000
   1647 C           9.8918   12.8913   42.9808 ca      1  CNT         0.000000
   1648 C           8.7306   13.7043   42.9808 ca      1  CNT         0.000000
   1649 C           8.1245   14.0721   41.7528 ca      1  CNT         0.000000
   1650 C           6.8672   14.7267   41.7528 ca      1  CNT         0.000000
   1651 C           6.2183   15.0122   42.9808 ca      1  CNT         0.000000
   1652 C           4.8862   15.4970   42.9808 ca      1  CNT         0.000000
   1653 C           4.2056   15.6954   41.7528 ca      1  CNT         0.000000
   1654 C           2.8216   16.0022   41.7528 ca      1  CNT         0.000000
   1655 C           2.1209   16.1101   42.9808 ca      1  CNT         0.000000
   1656 C           0.7088   16.2336   42.9808 ca      1  CNT         0.000000
   1657 C          -0.0000   16.2491   41.7528 ca      1  CNT         0.000000
   1658 C          -1.4162   16.1873   41.7528 ca      1  CNT         0.000000
   1659 C          -2.1209   16.1101   42.9808 ca      1  CNT         0.000000
   1660 C          -3.5169   15.8639   42.9808 ca      1  CNT         0.000000
   1661 C          -4.2056   15.6954   41.7528 ca      1  CNT         0.000000
   1662 C          -5.5575   15.2691   41.7528 ca      1  CNT         0.000000
   1663 C          -6.2183   15.0122   42.9808 ca      1  CNT         0.000000
   1664 C          -7.5030   14.4131   42.9808 ca      1  CNT         0.000000
   1665 C          -8.1245   14.0721   41.7528 ca      1  CNT         0.000000
   1666 C          -9.3201   13.3105   41.7528 ca      1  CNT         0.000000
   1667 C          -9.8918   12.8913   42.9808 ca      1  CNT         0.000000
   1668 C         -10.9777   11.9801   42.9808 ca      1  CNT         0.000000
   1669 C         -11.4898   11.4898   41.7528 ca      1  CNT         0.000000
   1670 C         -12.4475   10.4447   41.7528 ca      1  CNT         0.000000
   1671 C         -12.8913    9.8918   42.9808 ca      1  CNT         0.000000
   1672 C         -13.7043    8.7306   42.9808 ca      1  CNT         0.000000
   1673 C         -14.0721    8.1245   41.7528 ca      1  CNT         0.000000
   1674 C         -14.7267    6.8672   41.7528 ca      1  CNT         0.000000
   1675 C         -15.0122    6.2183   42.9808 ca      1  CNT         0.000000
   1676 C         -15.4970    4.8862   42.9808 ca      1  CNT         0.000000
   1677 C         -15.6954    4.2056   41.7528 ca      1  CNT         0.000000
   1678 C         -16.0022    2.8216   41.7528 ca      1  CNT         0.000000
   1679 C         -16.1101    2.1209   42.9808 ca      1  CNT         0.000000
   1680 C         -16.2336    0.7088   42.9808 ca      1  CNT         0.000000
   1681 C         -16.2491   -0.0000   41.7528 ca      1  CNT         0.000000
   1682 C         -16.1873   -1.4162   41.7528 ca      1  CNT         0.000000
   1683 C         -16.1101   -2.1209   42.9808 ca      1  CNT         0.000000
   1684 C         -15.8639   -3.5169   42.9808 ca      1  CNT         0.000000
   1685 C         -15.6954   -4.2056   41.7528 ca      1  CNT         0.000000
   1686 C         -15.2691   -5.5575   41.7528 ca      1  CNT         0.000000
   1687 C         -15.0122   -6.2183   42.9808 ca      1  CNT         0.000000
   1688 C         -14.4131   -7.5030   42.9808 ca      1  CNT         0.000000
   1689 C         -14.0721   -8.1245   41.7528 ca      1  CNT         0.000000
   1690 C         -13.3105   -9.3201   41.7528 ca      1  CNT         0.000000
   1691 C         -12.8913   -9.8918   42.9808 ca      1  CNT         0.000000
   1692 C         -11.9801  -10.9777   42.9808 ca      1  CNT         0.000000
   1693 C         -11.4898  -11.4898   41.7528 ca      1  CNT         0.000000
   1694 C         -10.4447  -12.4475   41.7528 ca      1  CNT         0.000000
   1695 C          -9.8918  -12.8913   42.9808 ca      1  CNT         0.000000
   1696 C          -8.7306  -13.7043   42.9808 ca      1  CNT         0.000000
   1697 C          -8.1245  -14.0721   41.7528 ca      1  CNT         0.000000
   1698 C          -6.8672  -14.7267   41.7528 ca      1  CNT         0.000000
   1699 C          -6.2183  -15.0122   42.9808 ca      1  CNT         0.000000
   1700 C          -4.8862  -15.4970   42.9808 ca      1  CNT         0.000000
   1701 C          -4.2056  -15.6954   41.7528 ca      1  CNT         0.000000
   1702 C          -2.8216  -16.0022   41.7528 ca      1  CNT         0.000000
   1703 C          -2.1209  -16.1101   42.9808 ca      1  CNT         0.000000
   1704 C          -0.7088  -16.2336   42.9808 ca      1  CNT         0.000000
   1705 C           0.0000  -16.2491   41.7528 ca      1  CNT         0.000000
   1706 C           1.4162  -16.1873   41.7528 ca      1  CNT         0.000000
   1707 C           2.1209  -16.1101   42.9808 ca      1  CNT         0.000000
   1708 C           3.5169  -15.8639   42.9808 ca      1  CNT         0.000000
   1709 C           4.2056  -15.6954   41.7528 ca      1  CNT         0.000000
   1710 C           5.5575  -15.2691   41.7528 ca      1  CNT         0.000000
   1711 C           6.2183  -15.0122   42.9808 ca      1  CNT         0.000000
   1712 C           7.5030  -14.4131   42.9808 ca      1  CNT         0.000000
   1713 C           8.1245  -14.0721   41.7528 ca      1  CNT         0.000000
   1714 C           9.3201  -13.3105   41.7528 ca      1  CNT         0.000000
   1715 C           9.8918  -12.8913   42.9808 ca      1  CNT         0.000000
   1716 C          10.9777  -11.9801   42.9808 ca      1  CNT         0.000000
   1717 C          11.4898  -11.4898   41.7528 ca      1  CNT         0.000000
   1718 C          12.4475  -10.4447   41.7528 ca      1  CNT         0.000000
   1719 C          12.8913   -9.8918   42.9808 ca      1  CNT         0.000000
   1720 C          13.7043   -8.7306   42.9808 ca      1  CNT         0.000000
   1721 C          14.0721   -8.1245   41.7528 ca      1  CNT         0.000000
   1722 C          14.7267   -6.8672   41.7528 ca      1  CNT         0.000000
   1723 C          15.0122   -6.2183   42.9808 ca      1  CNT         0.000000
   1724 C          15.4970   -4.8862   42.9808 ca      1  CNT         0.000000
   1725 C          15.6954   -4.2056   41.7528 ca      1  CNT         0.000000
   1726 C          16.0022   -2.8216   41.7528 ca      1  CNT         0.000000
   1727 C          16.1101   -2.1209   42.9808 ca      1  CNT         0.000000
   1728 C          16.2336   -0.7088   42.9808 ca      1  CNT         0.000000
   1729 C          16.2491    0.0000   44.2089 ca      1  CNT         0.000000
   1730 C          16.1873    1.4162   44.2089 ca      1  CNT         0.000000
   1731 C          16.1101    2.1209   45.4369 ca      1  CNT         0.000000
   1732 C          15.8639    3.5169   45.4369 ca      1  CNT         0.000000
   1733 C          15.6954    4.2056   44.2089 ca      1  CNT         0.000000
   1734 C          15.2691    5.5575   44.2089 ca      1  CNT         0.000000
   1735 C          15.0122    6.2183   45.4369 ca      1  CNT         0.000000
   1736 C          14.4131    7.5030   45.4369 ca      1  CNT         0.000000
   1737 C          14.0721    8.1245   44.2089 ca      1  CNT         0.000000
   1738 C          13.3105    9.3201   44.2089 ca      1  CNT         0.000000
   1739 C          12.8913    9.8918   45.4369 ca      1  CNT         0.000000
   1740 C          11.9801   10.9777   45.4369 ca      1  CNT         0.000000
   1741 C          11.4898   11.4898   44.2089 ca      1  CNT         0.000000
   1742 C          10.4447   12.4475   44.2089 ca      1  CNT         0.000000
   1743 C           9.8918   12.8913   45.4369 ca      1  CNT         0.000000
   1744 C           8.7306   13.7043   45.4369 ca      1  CNT         0.000000
   1745 C           8.1245   14.0721   44.2089 ca      1  CNT         0.000000
   1746 C           6.8672   14.7267   44.2089 ca      1  CNT         0.000000
   1747 C           6.2183   15.0122   45.4369 ca      1  CNT         0.000000
   1748 C           4.8862   15.4970   45.4369 ca      1  CNT         0.000000
   1749 C           4.2056   15.6954   44.2089 ca      1  CNT         0.000000
   1750 C           2.8216   16.0022   44.2089 ca      1  CNT         0.000000
   1751 C           2.1209   16.1101   45.4369 ca      1  CNT         0.000000
   1752 C           0.7088   16.2336   45.4369 ca      1  CNT         0.000000
   1753 C          -0.0000   16.2491   44.2089 ca      1  CNT         0.000000
   1754 C          -1.4162   16.1873   44.2089 ca      1  CNT         0.000000
   1755 C          -2.1209   16.1101   45.4369 ca      1  CNT         0.000000
   1756 C          -3.5169   15.8639   45.4369 ca      1  CNT         0.000000
   1757 C          -4.2056   15.6954   44.2089 ca      1  CNT         0.000000
   1758 C          -5.5575   15.2691   44.2089 ca      1  CNT         0.000000
   1759 C          -6.2183   15.0122   45.4369 ca      1  CNT         0.000000
   1760 C          -7.5030   14.4131   45.4369 ca      1  CNT         0.000000
   1761 C          -8.1245   14.0721   44.2089 ca      1  CNT         0.000000
   1762 C          -9.3201   13.3105   44.2089 ca      1  CNT         0.000000
   1763 C          -9.8918   12.8913   45.4369 ca      1  CNT         0.000000
   1764 C         -10.9777   11.9801   45.4369 ca      1  CNT         0.000000
   1765 C         -11.4898   11.4898   44.2089 ca      1  CNT         0.000000
   1766 C         -12.4475   10.4447   44.2089 ca      1  CNT         0.000000
   1767 C         -12.8913    9.8918   45.4369 ca      1  CNT         0.000000
   1768 C         -13.7043    8.7306   45.4369 ca      1  CNT         0.000000
   1769 C         -14.0721    8.1245   44.2089 ca      1  CNT         0.000000
   1770 C         -14.7267    6.8672   44.2089 ca      1  CNT         0.000000
   1771 C         -15.0122    6.2183   45.4369 ca      1  CNT         0.000000
   1772 C         -15.4970    4.8862   45.4369 ca      1  CNT         0.000000
   1773 C         -15.6954    4.2056   44.2089 ca      1  CNT         0.000000
   1774 C         -16.0022    2.8216   44.2089 ca      1  CNT         0.000000
   1775 C         -16.1101    2.1209   45.4369 ca      1  CNT         0.000000
   1776 C         -16.2336    0.7088   45.4369 ca      1  CNT         0.000000
   1777 C         -16.2491   -0.0000   44.2089 ca      1  CNT         0.000000
   1778 C         -16.1873   -1.4162   44.2089 ca      1  CNT         0.000000
   1779 C         -16.1101   -2.1209   45.4369 ca      1  CNT         0.000000
   1780 C         -15.8639   -3.5169   45.4369 ca      1  CNT         0.000000
   1781 C         -15.6954   -4.2056   44.2089 ca      1  CNT         0.000000
   1782 C         -15.2691   -5.5575   44.2089 ca      1  CNT         0.000000
   1783 C         -15.0122   -6.2183   45.4369 ca      1  CNT         0.000000
   1784 C         -14.4131   -7.5030   45.4369 ca      1  CNT         0.000000
   1785 C         -14.0721   -8.1245   44.2089 ca      1  CNT         0.000000
   1786 C         -13.3105   -9.3201   44.2089 ca      1  CNT         0.000000
   1787 C         -12.8913   -9.8918   45.4369 ca      1  CNT         0.000000
   1788 C         -11.9801  -10.9777   45.4369 ca      1  CNT         0.000000
   1789 C         -11.4898  -11.4898   44.2089 ca      1  CNT         0.000000
   1790 C         -10.4447  -12.4475   44.2089 ca      1  CNT         0.000000
   1791 C          -9.8918  -12.8913   45.4369 ca      1  CNT         0.000000
   1792 C          -8.7306  -13.7043   45.4369 ca      1  CNT         0.000000
   1793 C          -8.1245  -14.0721   44.2089 ca      1  CNT         0.000000
   1794 C          -6.8672  -14.7267   44.2089 ca      1  CNT         0.000000
   1795 C          -6.2183  -15.0122   45.4369 ca      1  CNT         0.000000
   1796 C          -4.8862  -15.4970   45.4369 ca      1  CNT         0.000000
   1797 C          -4.2056  -15.6954   44.2089 ca      1  CNT         0.000000
   1798 C          -2.8216  -16.0022   44.2089 ca      1  CNT         0.000000
   1799 C          -2.1209  -16.1101   45.4369 ca      1  CNT         0.000000
   1800 C          -0.7088  -16.2336   45.4369 ca      1  CNT         0.000000
   1801 C           0.0000  -16.2491   44.2089 ca      1  CNT         0.000000
   1802 C           1.4162  -16.1873   44.2089 ca      1  CNT         0.000000
   1803 C           2.1209  -16.1101   45.4369 ca      1  CNT         0.000000
   1804 C           3.5169  -15.8639   45.4369 ca      1  CNT         0.000000
   1805 C           4.2056  -15.6954   44.2089 ca      1  CNT         0.000000
   1806 C           5.5575  -15.2691   44.2089 ca      1  CNT         0.000000
   1807 C           6.2183  -15.0122   45.4369 ca      1  CNT         0.000000
   1808 C           7.5030  -14.4131   45.4369 ca      1  CNT         0.000000
   1809 C           8.1245  -14.0721   44.2089 ca      1  CNT         0.000000
   1810 C           9.3201  -13.3105   44.2089 ca      1  CNT         0.000000
   1811 C           9.8918  -12.8913   45.4369 ca      1  CNT         0.000000
   1812 C          10.9777  -11.9801   45.4369 ca      1  CNT         0.000000
   1813 C          11.4898  -11.4898   44.2089 ca      1  CNT         0.000000
   1814 C          12.4475  -10.4447   44.2089 ca      1  CNT         0.000000
   1815 C          12.8913   -9.8918   45.4369 ca      1  CNT         0.000000
   1816 C          13.7043   -8.7306   45.4369 ca      1  CNT         0.000000
   1817 C          14.0721   -8.1245   44.2089 ca      1  CNT         0.000000
   1818 C          14.7267   -6.8672   44.2089 ca      1  CNT         0.000000
   1819 C          15.0122   -6.2183   45.4369 ca      1  CNT         0.000000
   1820 C          15.4970   -4.8862   45.4369 ca      1  CNT         0.000000
   1821 C          15.6954   -4.2056   44.2089 ca      1  CNT         0.000000
   1822 C          16.0022   -2.8216   44.2089 ca      1  CNT         0.000000
   1823 C          16.1101   -2.1209   45.4369 ca      1  CNT         0.000000
   1824 C          16.2336   -0.7088   45.4369 ca      1  CNT         0.000000
   1825 C          16.2491    0.0000   46.6649 ca      1  CNT         0.000000
   1826 C          16.1873    1.4162   46.6649 ca      1  CNT         0.000000
   1827 C          16.1101    2.1209   47.8929 ca      1  CNT         0.000000
   1828 C          15.8639    3.5169   47.8929 ca      1  CNT         0.000000
   1829 C          15.6954    4.2056   46.6649 ca      1  CNT         0.000000
   1830 C          15.2691    5.5575   46.6649 ca      1  CNT         0.000000
   1831 C          15.0122    6.2183   47.8929 ca      1  CNT         0.000000
   1832 C          14.4131    7.5030   47.8929 ca      1  CNT         0.000000
   1833 C          14.0721    8.1245   46.6649 ca      1  CNT         0.000000
   1834 C          13.3105    9.3201   46.6649 ca      1  CNT         0.000000
   1835 C          12.8913    9.8918   47.8929 ca      1  CNT         0.000000
   1836 C          11.9801   10.9777   47.8929 ca      1  CNT         0.000000
   1837 C          11.4898   11.4898   46.6649 ca      1  CNT         0.000000
   1838 C          10.4447   12.4475   46.6649 ca      1  CNT         0.000000
   1839 C           9.8918   12.8913   47.8929 ca      1  CNT         0.000000
   1840 C           8.7306   13.7043   47.8929 ca      1  CNT         0.000000
   1841 C           8.1245   14.0721   46.6649 ca      1  CNT         0.000000
   1842 C           6.8672   14.7267   46.6649 ca      1  CNT         0.000000
   1843 C           6.2183   15.0122   47.8929 ca      1  CNT         0.000000
   1844 C           4.8862   15.4970   47.8929 ca      1  CNT         0.000000
   1845 C           4.2056   15.6954   46.6649 ca      1  CNT         0.000000
   1846 C           2.8216   16.0022   46.6649 ca      1  CNT         0.000000
   1847 C           2.1209   16.1101   47.8929 ca      1  CNT         0.000000
   1848 C           0.7088   16.2336   47.8929 ca      1  CNT         0.000000
   1849 C          -0.0000   16.2491   46.6649 ca      1  CNT         0.000000
   1850 C          -1.4162   16.1873   46.6649 ca      1  CNT         0.000000
   1851 C          -2.1209   16.1101   47.8929 ca      1  CNT         0.000000
   1852 C          -3.5169   15.8639   47.8929 ca      1  CNT         0.000000
   1853 C          -4.2056   15.6954   46.6649 ca      1  CNT         0.000000
   1854 C          -5.5575   15.2691   46.6649 ca      1  CNT         0.000000
   1855 C          -6.2183   15.0122   47.8929 ca      1  CNT         0.000000
   1856 C          -7.5030   14.4131   47.8929 ca      1  CNT         0.000000
   1857 C          -8.1245   14.0721   46.6649 ca      1  CNT         0.000000
   1858 C          -9.3201   13.3105   46.6649 ca      1  CNT         0.000000
   1859 C          -9.8918   12.8913   47.8929 ca      1  CNT         0.000000
   1860 C         -10.9777   11.9801   47.8929 ca      1  CNT         0.000000
   1861 C         -11.4898   11.4898   46.6649 ca      1  CNT         0.000000
   1862 C         -12.4475   10.4447   46.6649 ca      1  CNT         0.000000
   1863 C         -12.8913    9.8918   47.8929 ca      1  CNT         0.000000
   1864 C         -13.7043    8.7306   47.8929 ca      1  CNT         0.000000
   1865 C         -14.0721    8.1245   46.6649 ca      1  CNT         0.000000
   1866 C         -14.7267    6.8672   46.6649 ca      1  CNT         0.000000
   1867 C         -15.0122    6.2183   47.8929 ca      1  CNT         0.000000
   1868 C         -15.4970    4.8862   47.8929 ca      1  CNT         0.000000
   1869 C         -15.6954    4.2056   46.6649 ca      1  CNT         0.000000
   1870 C         -16.0022    2.8216   46.6649 ca      1  CNT         0.000000
   1871 C         -16.1101    2.1209   47.8929 ca      1  CNT         0.000000
   1872 C         -16.2336    0.7088   47.8929 ca      1  CNT         0.000000
   1873 C         -16.2491   -0.0000   46.6649 ca      1  CNT         0.000000
   1874 C         -16.1873   -1.4162   46.6649 ca      1  CNT         0.000000
   1875 C         -16.1101   -2.1209   47.8929 ca      1  CNT         0.000000
   1876 C         -15.8639   -3.5169   47.8929 ca      1  CNT         0.000000
   1877 C         -15.6954   -4.2056   46.6649 ca      1  CNT         0.000000
   1878 C         -15.2691   -5.5575   46.6649 ca      1  CNT         0.000000
   1879 C         -15.0122   -6.2183   47.8929 ca      1  CNT         0.000000
   1880 C         -14.4131   -7.5030   47.8929 ca      1  CNT         0.000000
   1881 C         -14.0721   -8.1245   46.6649 ca      1  CNT         0.000000
   1882 C         -13.3105   -9.3201   46.6649 ca      1  CNT         0.000000
   1883 C         -12.8913   -9.8918   47.8929 ca      1  CNT         0.000000
   1884 C         -11.9801  -10.9777   47.8929 ca      1  CNT         0.000000
   1885 C         -11.4898  -11.4898   46.6649 ca      1  CNT         0.000000
   1886 C         -10.4447  -12.4475   46.6649 ca      1  CNT         0.000000
   1887 C          -9.8918  -12.8913   47.8929 ca      1  CNT         0.000000
   1888 C          -8.7306  -13.7043   47.8929 ca      1  CNT         0.000000
   1889 C          -8.1245  -14.0721   46.6649 ca      1  CNT         0.000000
   1890 C          -6.8672  -14.7267   46.6649 ca      1  CNT         0.000000
   1891 C          -6.2183  -15.0122   47.8929 ca      1  CNT         0.000000
   1892 C          -4.8862  -15.4970   47.8929 ca      1  CNT         0.000000
   1893 C          -4.2056  -15.6954   46.6649 ca      1  CNT         0.000000
   1894 C          -2.8216  -16.0022   46.6649 ca      1  CNT         0.000000
   1895 C          -2.1209  -16.1101   47.8929 ca      1  CNT         0.000000
   1896 C          -0.7088  -16.2336   47.8929 ca      1  CNT         0.000000
   1897 C           0.0000  -16.2491   46.6649 ca      1  CNT         0.000000
   1898 C           1.4162  -16.1873   46.6649 ca      1  CNT         0.000000
   1899 C           2.1209  -16.1101   47.8929 ca      1  CNT         0.000000
   1900 C           3.5169  -15.8639   47.8929 ca      1  CNT         0.000000
   1901 C           4.2056  -15.6954   46.6649 ca      1  CNT         0.000000
   1902 C           5.5575  -15.2691   46.6649 ca      1  CNT         0.000000
   1903 C           6.2183  -15.0122   47.8929 ca      1  CNT         0.000000
   1904 C           7.5030  -14.4131   47.8929 ca      1  CNT         0.000000
   1905 C           8.1245  -14.0721   46.6649 ca      1  CNT         0.000000
   1906 C           9.3201  -13.3105   46.6649 ca      1  CNT         0.000000
   1907 C           9.8918  -12.8913   47.8929 ca      1  CNT         0.000000
   1908 C          10.9777  -11.9801   47.8929 ca      1  CNT         0.000000
   1909 C          11.4898  -11.4898   46.6649 ca      1  CNT         0.000000
   1910 C          12.4475  -10.4447   46.6649 ca      1  CNT         0.000000
   1911 C          12.8913   -9.8918   47.8929 ca      1  CNT         0.000000
   1912 C          13.7043   -8.7306   47.8929 ca      1  CNT         0.000000
   1913 C          14.0721   -8.1245   46.6649 ca      1  CNT         0.000000
   1914 C          14.7267   -6.8672   46.6649 ca      1  CNT         0.000000
   1915 C          15.0122   -6.2183   47.8929 ca      1  CNT         0.000000
   1916 C          15.4970   -4.8862   47.8929 ca      1  CNT         0.000000
   1917 C          15.6954   -4.2056   46.6649 ca      1  CNT         0.000000
   1918 C          16.0022   -2.8216   46.6649 ca      1  CNT         0.000000
   1919 C          16.1101   -2.1209   47.8929 ca      1  CNT         0.000000
   1920 C          16.2336   -0.7088   47.8929 ca      1  CNT         0.000000
   1921 C          16.2491    0.0000   49.1210 ca      1  CNT         0.000000
   1922 C          16.1873    1.4162   49.1210 ca      1  CNT         0.000000
   1923 C          16.1101    2.1209   50.3490 ca      1  CNT         0.000000
   1924 C          15.8639    3.5169   50.3490 ca      1  CNT         0.000000
   1925 C          15.6954    4.2056   49.1210 ca      1  CNT         0.000000
   1926 C          15.2691    5.5575   49.1210 ca      1  CNT         0.000000
   1927 C          15.0122    6.2183   50.3490 ca      1  CNT         0.000000
   1928 C          14.4131    7.5030   50.3490 ca      1  CNT         0.000000
   1929 C          14.0721    8.1245   49.1210 ca      1  CNT         0.000000
   1930 C          13.3105    9.3201   49.1210 ca      1  CNT         0.000000
   1931 C          12.8913    9.8918   50.3490 ca      1  CNT         0.000000
   1932 C          11.9801   10.9777   50.3490 ca      1  CNT         0.000000
   1933 C          11.4898   11.4898   49.1210 ca      1  CNT         0.000000
   1934 C          10.4447   12.4475   49.1210 ca      1  CNT         0.000000
   1935 C           9.8918   12.8913   50.3490 ca      1  CNT         0.000000
   1936 C           8.7306   13.7043   50.3490 ca      1  CNT         0.000000
   1937 C           8.1245   14.0721   49.1210 ca      1  CNT         0.000000
   1938 C           6.8672   14.7267   49.1210 ca      1  CNT         0.000000
   1939 C           6.2183   15.0122   50.3490 ca      1  CNT         0.000000
   1940 C           4.8862   15.4970   50.3490 ca      1  CNT         0.000000
   1941 C           4.2056   15.6954   49.1210 ca      1  CNT         0.000000
   1942 C           2.8216   16.0022   49.1210 ca      1  CNT         0.000000
   1943 C           2.1209   16.1101   50.3490 ca      1  CNT         0.000000
   1944 C           0.7088   16.2336   50.3490 ca      1  CNT         0.000000
   1945 C          -0.0000   16.2491   49.1210 ca      1  CNT         0.000000
   1946 C          -1.4162   16.1873   49.1210 ca      1  CNT         0.000000
   1947 C          -2.1209   16.1101   50.3490 ca      1  CNT         0.000000
   1948 C          -3.5169   15.8639   50.3490 ca      1  CNT         0.000000
   1949 C          -4.2056   15.6954   49.1210 ca      1  CNT         0.000000
   1950 C          -5.5575   15.2691   49.1210 ca      1  CNT         0.000000
   1951 C          -6.2183   15.0122   50.3490 ca      1  CNT         0.000000
   1952 C          -7.5030   14.4131   50.3490 ca      1  CNT         0.000000
   1953 C          -8.1245   14.0721   49.1210 ca      1  CNT         0.000000
   1954 C          -9.3201   13.3105   49.1210 ca      1  CNT         0.000000
   1955 C          -9.8918   12.8913   50.3490 ca      1  CNT         0.000000
   1956 C         -10.9777   11.9801   50.3490 ca      1  CNT         0.000000
   1957 C         -11.4898   11.4898   49.1210 ca      1  CNT         0.000000
   1958 C         -12.4475   10.4447   49.1210 ca      1  CNT         0.000000
   1959 C         -12.8913    9.8918   50.3490 ca      1  CNT         0.000000
   1960 C         -13.7043    8.7306   50.3490 ca      1  CNT         0.000000
   1961 C         -14.0721    8.1245   49.1210 ca      1  CNT         0.000000
   1962 C         -14.7267    6.8672   49.1210 ca      1  CNT         0.000000
   1963 C         -15.0122    6.2183   50.3490 ca      1  CNT         0.000000
   1964 C         -15.4970    4.8862   50.3490 ca      1  CNT         0.000000
   1965 C         -15.6954    4.2056   49.1210 ca      1  CNT         0.000000
   1966 C         -16.0022    2.8216   49.1210 ca      1  CNT         0.000000
   1967 C         -16.1101    2.1209   50.3490 ca      1  CNT         0.000000
   1968 C         -16.2336    0.7088   50.3490 ca      1  CNT         0.000000
   1969 C         -16.2491   -0.0000   49.1210 ca      1  CNT         0.000000
   1970 C         -16.1873   -1.4162   49.1210 ca      1  CNT         0.000000
   1971 C         -16.1101   -2.1209   50.3490 ca      1  CNT         0.000000
   1972 C         -15.8639   -3.5169   50.3490 ca      1  CNT         0.000000
   1973 C         -15.6954   -4.2056   49.1210 ca      1  CNT         0.000000
   1974 C         -15.2691   -5.5575   49.1210 ca      1  CNT         0.000000
   1975 C         -15.0122   -6.2183   50.3490 ca      1  CNT         0.000000
   1976 C         -14.4131   -7.5030   50.3490 ca      1  CNT         0.000000
   1977 C         -14.0721   -8.1245   49.1210 ca      1  CNT         0.000000
   1978 C         -13.3105   -9.3201   49.1210 ca      1  CNT         0.000000
   1979 C         -12.8913   -9.8918   50.3490 ca      1  CNT         0.000000
   1980 C         -11.9801  -10.9777   50.3490 ca      1  CNT         0.000000
   1981 C         -11.4898  -11.4898   49.1210 ca      1  CNT         0.000000
   1982 C         -10.4447  -12.4475   49.1210 ca      1  CNT         0.000000
   1983 C          -9.8918  -12.8913   50.3490 ca      1  CNT         0.000000
   1984 C          -8.7306  -13.7043   50.3490 ca      1  CNT         0.000000
   1985 C          -8.1245  -14.0721   49.1210 ca      1  CNT         0.000000
   1986 C          -6.8672  -14.7267   49.1210 ca      1  CNT         0.000000
   1987 C          -6.2183  -15.0122   50.3490 ca      1  CNT         0.000000
   1988 C          -4.8862  -15.4970   50.3490 ca      1  CNT         0.000000
   1989 C          -4.2056  -15.6954   49.1210 ca      1  CNT         0.000000
   1990 C          -2.8216  -16.0022   49.1210 ca      1  CNT         0.000000
   1991 C          -2.1209  -16.1101   50.3490 ca      1  CNT         0.000000
   1992 C          -0.7088  -16.2336   50.3490 ca      1  CNT         0.000000
   1993 C           0.0000  -16.2491   49.1210 ca      1  CNT         0.000000
   1994 C           1.4162  -16.1873   49.1210 ca      1  CNT         0.000000
   1995 C           2.1209  -16.1101   50.3490 ca      1  CNT         0.000000
   1996 C           3.5169  -15.8639   50.3490 ca      1  CNT         0.000000
   1997 C           4.2056  -15.6954   49.1210 ca      1  CNT         0.000000
   1998 C           5.5575  -15.2691   49.1210 ca      1  CNT         0.000000
   1999 C           6.2183  -15.0122   50.3490 ca      1  CNT         0.000000
   2000 C           7.5030  -14.4131   50.3490 ca      1  CNT         0.000000
   2001 C           8.1245  -14.0721   49.1210 ca      1  CNT         0.000000
   2002 C           9.3201  -13.3105   49.1210 ca      1  CNT         0.000000
   2003 C           9.8918  -12.8913   50.3490 ca      1  CNT         0.000000
   2004 C          10.9777  -11.9801   50.3490 ca      1  CNT         0.000000
   2005 C          11.4898  -11.4898   49.1210 ca      1  CNT         0.000000
   2006 C          12.4475  -10.4447   49.1210 ca      1  CNT         0.000000
   2007 C          12.8913   -9.8918   50.3490 ca      1  CNT         0.000000
   2008 C          13.7043   -8.7306   50.3490 ca      1  CNT         0.000000
   2009 C          14.0721   -8.1245   49.1210 ca      1  CNT         0.000000
   2010 C          14.7267   -6.8672   49.1210 ca      1  CNT         0.000000
   2011 C          15.0122   -6.2183   50.3490 ca      1  CNT         0.000000
   2012 C          15.4970   -4.8862   50.3490 ca      1  CNT         0.000000
   2013 C          15.6954   -4.2056   49.1210 ca      1  CNT         0.000000
   2014 C          16.0022   -2.8216   49.1210 ca      1  CNT         0.000000
   2015 C          16.1101   -2.1209   50.3490 ca      1  CNT         0.000000
   2016 C          16.2336   -0.7088   50.3490 ca      1  CNT         0.000000
   2017 C          16.2491    0.0000   51.5770 ca      1  CNT         0.000000
   2018 C          16.1873    1.4162   51.5770 ca      1  CNT         0.000000
   2019 C          16.1101    2.1209   52.8050 ca      1  CNT         0.000000
   2020 C          15.8639    3.5169   52.8050 ca      1  CNT         0.000000
   2021 C          15.6954    4.2056   51.5770 ca      1  CNT         0.000000
   2022 C          15.2691    5.5575   51.5770 ca      1  CNT         0.000000
   2023 C          15.0122    6.2183   52.8050 ca      1  CNT         0.000000
   2024 C          14.4131    7.5030   52.8050 ca      1  CNT         0.000000
   2025 C          14.0721    8.1245   51.5770 ca      1  CNT         0.000000
   2026 C          13.3105    9.3201   51.5770 ca      1  CNT         0.000000
   2027 C          12.8913    9.8918   52.8050 ca      1  CNT         0.000000
   2028 C          11.9801   10.9777   52.8050 ca      1  CNT         0.000000
   2029 C          11.4898   11.4898   51.5770 ca      1  CNT         0.000000
   2030 C          10.4447   12.4475   51.5770 ca      1  CNT         0.000000
   2031 C           9.8918   12.8913   52.8050 ca      1  CNT         0.000000
   2032 C           8.7306   13.7043   52.8050 ca      1  CNT         0.000000
   2033 C           8.1245   14.0721   51.5770 ca      1  CNT         0.000000
   2034 C           6.8672   14.7267   51.5770 ca      1  CNT         0.000000
   2035 C           6.2183   15.0122   52.8050 ca      1  CNT         0.000000
   2036 C           4.8862   15.4970   52.8050 ca      1  CNT         0.000000
   2037 C           4.2056   15.6954   51.5770 ca      1  CNT         0.000000
   2038 C           2.8216   16.0022   51.5770 ca      1  CNT         0.000000
   2039 C           2.1209   16.1101   52.8050 ca      1  CNT         0.000000
   2040 C           0.7088   16.2336   52.8050 ca      1  CNT         0.000000
   2041 C          -0.0000   16.2491   51.5770 ca      1  CNT         0.000000
   2042 C          -1.4162   16.1873   51.5770 ca      1  CNT         0.000000
   2043 C          -2.1209   16.1101   52.8050 ca      1  CNT         0.000000
   2044 C          -3.5169   15.8639   52.8050 ca      1  CNT         0.000000
   2045 C          -4.2056   15.6954   51.5770 ca      1  CNT         0.000000
   2046 C          -5.5575   15.2691   51.5770 ca      1  CNT         0.000000
   2047 C          -6.2183   15.0122   52.8050 ca      1  CNT         0.000000
   2048 C          -7.5030   14.4131   52.8050 ca      1  CNT         0.000000
   2049 C          -8.1245   14.0721   51.5770 ca      1  CNT         0.000000
   2050 C          -9.3201   13.3105   51.5770 ca      1  CNT         0.000000
   2051 C          -9.8918   12.8913   52.8050 ca      1  CNT         0.000000
   2052 C         -10.9777   11.9801   52.8050 ca      1  CNT         0.000000
   2053 C         -11.4898   11.4898   51.5770 ca      1  CNT         0.000000
   2054 C         -12.4475   10.4447   51.5770 ca      1  CNT         0.000000
   2055 C         -12.8913    9.8918   52.8050 ca      1  CNT         0.000000
   2056 C         -13.7043    8.7306   52.8050 ca      1  CNT         0.000000
   2057 C         -14.0721    8.1245   51.5770 ca      1  CNT         0.000000
   2058 C         -14.7267    6.8672   51.5770 ca      1  CNT         0.000000
   2059 C         -15.0122    6.2183   52.8050 ca      1  CNT         0.000000
   2060 C         -15.4970    4.8862   52.8050 ca      1  CNT         0.000000
   2061 C         -15.6954    4.2056   51.5770 ca      1  CNT         0.000000
   2062 C         -16.0022    2.8216   51.5770 ca      1  CNT         0.000000
   2063 C         -16.1101    2.1209   52.8050 ca      1  CNT         0.000000
   2064 C         -16.2336    0.7088   52.8050 ca      1  CNT         0.000000
   2065 C         -16.2491   -0.0000   51.5770 ca      1  CNT         0.000000
   2066 C         -16.1873   -1.4162   51.5770 ca      1  CNT         0.000000
   2067 C         -16.1101   -2.1209   52.8050 ca      1  CNT         0.000000
   2068 C         -15.8639   -3.5169   52.8050 ca      1  CNT         0.000000
   2069 C         -15.6954   -4.2056   51.5770 ca      1  CNT         0.000000
   2070 C         -15.2691   -5.5575   51.5770 ca      1  CNT         0.000000
   2071 C         -15.0122   -6.2183   52.8050 ca      1  CNT         0.000000
   2072 C         -14.4131   -7.5030   52.8050 ca      1  CNT         0.000000
   2073 C         -14.0721   -8.1245   51.5770 ca      1  CNT         0.000000
   2074 C         -13.3105   -9.3201   51.5770 ca      1  CNT         0.000000
   2075 C         -12.8913   -9.8918   52.8050 ca      1  CNT         0.000000
   2076 C         -11.9801  -10.9777   52.8050 ca      1  CNT         0.000000
   2077 C         -11.4898  -11.4898   51.5770 ca      1  CNT         0.000000
   2078 C         -10.4447  -12.4475   51.5770 ca      1  CNT         0.000000
   2079 C          -9.8918  -12.8913   52.8050 ca      1  CNT         0.000000
   2080 C          -8.7306  -13.7043   52.8050 ca      1  CNT         0.000000
   2081 C          -8.1245  -14.0721   51.5770 ca      1  CNT         0.000000
   2082 C          -6.8672  -14.7267   51.5770 ca      1  CNT         0.000000
   2083 C          -6.2183  -15.0122   52.8050 ca      1  CNT         0.000000
   2084 C          -4.8862  -15.4970   52.8050 ca      1  CNT         0.000000
   2085 C          -4.2056  -15.6954   51.5770 ca      1  CNT         0.000000
   2086 C          -2.8216  -16.0022   51.5770 ca      1  CNT         0.000000
   2087 C          -2.1209  -16.1101   52.8050 ca      1  CNT         0.000000
   2088 C          -0.7088  -16.2336   52.8050 ca      1  CNT         0.000000
   2089 C           0.0000  -16.2491   51.5770 ca      1  CNT         0.000000
   2090 C           1.4162  -16.1873   51.5770 ca      1  CNT         0.000000
   2091 C           2.1209  -16.1101   52.8050 ca      1  CNT         0.000000
   2092 C           3.5169  -15.8639   52.8050 ca      1  CNT         0.000000
   2093 C           4.2056  -15.6954   51.5770 ca      1  CNT         0.000000
   2094 C           5.5575  -15.2691   51.5770 ca      1  CNT         0.000000
   2095 C           6.2183  -15.0122   52.8050 ca      1  CNT         0.000000
   2096 C           7.5030  -14.4131   52.8050 ca      1  CNT         0.000000
   2097 C           8.1245  -14.0721   51.5770 ca      1  CNT         0.000000
   2098 C           9.3201  -13.3105   51.5770 ca      1  CNT         0.000000
   2099 C           9.8918  -12.8913   52.8050 ca      1  CNT         0.000000
   2100 C          10.9777  -11.9801   52.8050 ca      1  CNT         0.000000
   2101 C          11.4898  -11.4898   51.5770 ca      1  CNT         0.000000
   2102 C          12.4475  -10.4447   51.5770 ca      1  CNT         0.000000
   2103 C          12.8913   -9.8918   52.8050 ca      1  CNT         0.000000
   2104 C          13.7043   -8.7306   52.8050 ca      1  CNT         0.000000
   2105 C          14.0721   -8.1245   51.5770 ca      1  CNT         0.000000
   2106 C          14.7267   -6.8672   51.5770 ca      1  CNT         0.000000
   2107 C          15.0122   -6.2183   52.8050 ca      1  CNT         0.000000
   2108 C          15.4970   -4.8862   52.8050 ca      1  CNT         0.000000
   2109 C          15.6954   -4.2056   51.5770 ca      1  CNT         0.000000
   2110 C          16.0022   -2.8216   51.5770 ca      1  CNT         0.000000
   2111 C          16.1101   -2.1209   52.8050 ca      1  CNT         0.000000
   2112 C          16.2336   -0.7088   52.8050 ca      1  CNT         0.000000
   2113 C          16.2491    0.0000   54.0331 ca      1  CNT         0.000000
   2114 C          16.1873    1.4162   54.0331 ca      1  CNT         0.000000
   2115 C          16.1101    2.1209   55.2611 ca      1  CNT         0.000000
   2116 C          15.8639    3.5169   55.2611 ca      1  CNT         0.000000
   2117 C          15.6954    4.2056   54.0331 ca      1  CNT         0.000000
   2118 C          15.2691    5.5575   54.0331 ca      1  CNT         0.000000
   2119 C          15.0122    6.2183   55.2611 ca      1  CNT         0.000000
   2120 C          14.4131    7.5030   55.2611 ca      1  CNT         0.000000
   2121 C          14.0721    8.1245   54.0331 ca      1  CNT         0.000000
   2122 C          13.3105    9.3201   54.0331 ca      1  CNT         0.000000
   2123 C          12.8913    9.8918   55.2611 ca      1  CNT         0.000000
   2124 C          11.9801   10.9777   55.2611 ca      1  CNT         0.000000
   2125 C          11.4898   11.4898   54.0331 ca      1  CNT         0.000000
   2126 C          10.4447   12.4475   54.0331 ca      1  CNT         0.000000
   2127 C           9.8918   12.8913   55.2611 ca      1  CNT         0.000000
   2128 C           8.7306   13.7043   55.2611 ca      1  CNT         0.000000
   2129 C           8.1245   14.0721   54.0331 ca      1  CNT         0.000000
   2130 C           6.8672   14.7267   54.0331 ca      1  CNT         0.000000
   2131 C           6.2183   15.0122   55.2611 ca      1  CNT         0.000000
   2132 C           4.8862   15.4970   55.2611 ca      1  CNT         0.000000
   2133 C           4.2056   15.6954   54.0331 ca      1  CNT         0.000000
   2134 C           2.8216   16.0022   54.0331 ca      1  CNT         0.000000
   2135 C           2.1209   16.1101   55.2611 ca      1  CNT         0.000000
   2136 C           0.7088   16.2336   55.2611 ca      1  CNT         0.000000
   2137 C          -0.0000   16.2491   54.0331 ca      1  CNT         0.000000
   2138 C          -1.4162   16.1873   54.0331 ca      1  CNT         0.000000
   2139 C          -2.1209   16.1101   55.2611 ca      1  CNT         0.000000
   2140 C          -3.5169   15.8639   55.2611 ca      1  CNT         0.000000
   2141 C          -4.2056   15.6954   54.0331 ca      1  CNT         0.000000
   2142 C          -5.5575   15.2691   54.0331 ca      1  CNT         0.000000
   2143 C          -6.2183   15.0122   55.2611 ca      1  CNT         0.000000
   2144 C          -7.5030   14.4131   55.2611 ca      1  CNT         0.000000
   2145 C          -8.1245   14.0721   54.0331 ca      1  CNT         0.000000
   2146 C          -9.3201   13.3105   54.0331 ca      1  CNT         0.000000
   2147 C          -9.8918   12.8913   55.2611 ca      1  CNT         0.000000
   2148 C         -10.9777   11.9801   55.2611 ca      1  CNT         0.000000
   2149 C         -11.4898   11.4898   54.0331 ca      1  CNT         0.000000
   2150 C         -12.4475   10.4447   54.0331 ca      1  CNT         0.000000
   2151 C         -12.8913    9.8918   55.2611 ca      1  CNT         0.000000
   2152 C         -13.7043    8.7306   55.2611 ca      1  CNT         0.000000
   2153 C         -14.0721    8.1245   54.0331 ca      1  CNT         0.000000
   2154 C         -14.7267    6.8672   54.0331 ca      1  CNT         0.000000
   2155 C         -15.0122    6.2183   55.2611 ca      1  CNT         0.000000
   2156 C         -15.4970    4.8862   55.2611 ca      1  CNT         0.000000
   2157 C         -15.6954    4.2056   54.0331 ca      1  CNT         0.000000
   2158 C         -16.0022    2.8216   54.0331 ca      1  CNT         0.000000
   2159 C         -16.1101    2.1209   55.2611 ca      1  CNT         0.000000
   2160 C         -16.2336    0.7088   55.2611 ca      1  CNT         0.000000
   2161 C         -16.2491   -0.0000   54.0331 ca      1  CNT         0.000000
   2162 C         -16.1873   -1.4162   54.0331 ca      1  CNT         0.000000
   2163 C         -16.1101   -2.1209   55.2611 ca      1  CNT         0.000000
   2164 C         -15.8639   -3.5169   55.2611 ca      1  CNT         0.000000
   2165 C         -15.6954   -4.2056   54.0331 ca      1  CNT         0.000000
   2166 C         -15.2691   -5.5575   54.0331 ca      1  CNT         0.000000
   2167 C         -15.0122   -6.2183   55.2611 ca      1  CNT         0.000000
   2168 C         -14.4131   -7.5030   55.2611 ca      1  CNT         0.000000
   2169 C         -14.0721   -8.1245   54.0331 ca      1  CNT         0.000000
   2170 C         -13.3105   -9.3201   54.0331 ca      1  CNT         0.000000
   2171 C         -12.8913   -9.8918   55.2611 ca      1  CNT         0.000000
   2172 C         -11.9801  -10.9777   55.2611 ca      1  CNT         0.000000
   2173 C         -11.4898  -11.4898   54.0331 ca      1  CNT         0.000000
   2174 C         -10.4447  -12.4475   54.0331 ca      1  CNT         0.000000
   2175 C          -9.8918  -12.8913   55.2611 ca      1  CNT         0.000000
   2176 C          -8.7306  -13.7043   55.2611 ca      1  CNT         0.000000
   2177 C          -8.1245  -14.0721   54.0331 ca      1  CNT         0.000000
   2178 C          -6.8672  -14.7267   54.0331 ca      1  CNT         0.000000
   2179 C          -6.2183  -15.0122   55.2611 ca      1  CNT         0.000000
   2180 C          -4.8862  -15.4970   55.2611 ca      1  CNT         0.000000
   2181 C          -4.2056  -15.6954   54.0331 ca      1  CNT         0.000000
   2182 C          -2.8216  -16.0022   54.0331 ca      1  CNT         0.000000
   2183 C          -2.1209  -16.1101   55.2611 ca      1  CNT         0.000000
   2184 C          -0.7088  -16.2336   55.2611 ca      1  CNT         0.000000
   2185 C           0.0000  -16.2491   54.0331 ca      1  CNT         0.000000
   2186 C           1.4162  -16.1873   54.0331 ca      1  CNT         0.000000
   2187 C           2.1209  -16.1101   55.2611 ca      1  CNT         0.000000
   2188 C           3.5169  -15.8639   55.2611 ca      1  CNT         0.000000
   2189 C           4.2056  -15.6954   54.0331 ca      1  CNT         0.000000
   2190 C           5.5575  -15.2691   54.0331 ca      1  CNT         0.000000
   2191 C           6.2183  -15.0122   55.2611 ca      1  CNT         0.000000
   2192 C           7.5030  -14.4131   55.2611 ca      1  CNT         0.000000
   2193 C           8.1245  -14.0721   54.0331 ca      1  CNT         0.000000
   2194 C           9.3201  -13.3105   54.0331 ca      1  CNT         0.000000
   2195 C           9.8918  -12.8913   55.2611 ca      1  CNT         0.000000
   2196 C          10.9777  -11.9801   55.2611 ca      1  CNT         0.000000
   2197 C          11.4898  -11.4898   54.0331 ca      1  CNT         0.000000
   2198 C          12.4475  -10.4447   54.0331 ca      1  CNT         0.000000
   2199 C          12.8913   -9.8918   55.2611 ca      1  CNT         0.000000
   2200 C          13.7043   -8.7306   55.2611 ca      1  CNT         0.000000
   2201 C          14.0721   -8.1245   54.0331 ca      1  CNT         0.000000
   2202 C          14.7267   -6.8672   54.0331 ca      1  CNT         0.000000
   2203 C          15.0122   -6.2183   55.2611 ca      1  CNT         0.000000
   2204 C          15.4970   -4.8862   55.2611 ca      1  CNT         0.000000
   2205 C          15.6954   -4.2056   54.0331 ca      1  CNT         0.000000
   2206 C          16.0022   -2.8216   54.0331 ca      1  CNT         0.000000
   2207 C          16.1101   -2.1209   55.2611 ca      1  CNT         0.000000
   2208 C          16.2336   -0.7088   55.2611 ca      1  CNT         0.000000
   2209 C          16.2491    0.0000   56.4891 ca      1  CNT         0.000000
   2210 C          16.1873    1.4162   56.4891 ca      1  CNT         0.000000
   2211 C          16.1101    2.1209   57.7171 ca      1  CNT         0.000000
   2212 C          15.8639    3.5169   57.7171 ca      1  CNT         0.000000
   2213 C          15.6954    4.2056   56.4891 ca      1  CNT         0.000000
   2214 C          15.2691    5.5575   56.4891 ca      1  CNT         0.000000
   2215 C          15.0122    6.2183   57.7171 ca      1  CNT         0.000000
   2216 C          14.4131    7.5030   57.7171 ca      1  CNT         0.000000
   2217 C          14.0721    8.1245   56.4891 ca      1  CNT         0.000000
   2218 C          13.3105    9.3201   56.4891 ca      1  CNT         0.000000
   2219 C          12.8913    9.8918   57.7171 ca      1  CNT         0.000000
   2220 C          11.9801   10.9777   57.7171 ca      1  CNT         0.000000
   2221 C          11.4898   11.4898   56.4891 ca      1  CNT         0.000000
   2222 C          10.4447   12.4475   56.4891 ca      1  CNT         0.000000
   2223 C           9.8918   12.8913   57.7171 ca      1  CNT         0.000000
   2224 C           8.7306   13.7043   57.7171 ca      1  CNT         0.000000
   2225 C           8.1245   14.0721   56.4891 ca      1  CNT         0.000000
   2226 C           6.8672   14.7267   56.4891 ca      1  CNT         0.000000
   2227 C           6.2183   15.0122   57.7171 ca      1  CNT         0.000000
   2228 C           4.8862   15.4970   57.7171 ca      1  CNT         0.000000
   2229 C           4.2056   15.6954   56.4891 ca      1  CNT         0.000000
   2230 C           2.8216   16.0022   56.4891 ca      1  CNT         0.000000
   2231 C           2.1209   16.1101   57.7171 ca      1  CNT         0.000000
   2232 C           0.7088   16.2336   57.7171 ca      1  CNT         0.000000
   2233 C          -0.0000   16.2491   56.4891 ca      1  CNT         0.000000
   2234 C          -1.4162   16.1873   56.4891 ca      1  CNT         0.000000
   2235 C          -2.1209   16.1101   57.7171 ca      1  CNT         0.000000
   2236 C          -3.5169   15.8639   57.7171 ca      1  CNT         0.000000
   2237 C          -4.2056   15.6954   56.4891 ca      1  CNT         0.000000
   2238 C          -5.5575   15.2691   56.4891 ca      1  CNT         0.000000
   2239 C          -6.2183   15.0122   57.7171 ca      1  CNT         0.000000
   2240 C          -7.5030   14.4131   57.7171 ca      1  CNT         0.000000
   2241 C          -8.1245   14.0721   56.4891 ca      1  CNT         0.000000
   2242 C          -9.3201   13.3105   56.4891 ca      1  CNT         0.000000
   2243 C          -9.8918   12.8913   57.7171 ca      1  CNT         0.000000
   2244 C         -10.9777   11.9801   57.7171 ca      1  CNT         0.000000
   2245 C         -11.4898   11.4898   56.4891 ca      1  CNT         0.000000
   2246 C         -12.4475   10.4447   56.4891 ca      1  CNT         0.000000
   2247 C         -12.8913    9.8918   57.7171 ca      1  CNT         0.000000
   2248 C         -13.7043    8.7306   57.7171 ca      1  CNT         0.000000
   2249 C         -14.0721    8.1245   56.4891 ca      1  CNT         0.000000
   2250 C         -14.7267    6.8672   56.4891 ca      1  CNT         0.000000
   2251 C         -15.0122    6.2183   57.7171 ca      1  CNT         0.000000
   2252 C         -15.4970    4.8862   57.7171 ca      1  CNT         0.000000
   2253 C         -15.6954    4.2056   56.4891 ca      1  CNT         0.000000
   2254 C         -16.0022    2.8216   56.4891 ca      1  CNT         0.000000
   2255 C         -16.1101    2.1209   57.7171 ca      1  CNT         0.000000
   2256 C         -16.2336    0.7088   57.7171 ca      1  CNT         0.000000
   2257 C         -16.2491   -0.0000   56.4891 ca      1  CNT         0.000000
   2258 C         -16.1873   -1.4162   56.4891 ca      1  CNT         0.000000
   2259 C         -16.1101   -2.1209   57.7171 ca      1  CNT         0.000000
   2260 C         -15.8639   -3.5169   57.7171 ca      1  CNT         0.000000
   2261 C         -15.6954   -4.2056   56.4891 ca      1  CNT         0.000000
   2262 C         -15.2691   -5.5575   56.4891 ca      1  CNT         0.000000
   2263 C         -15.0122   -6.2183   57.7171 ca      1  CNT         0.000000
   2264 C         -14.4131   -7.5030   57.7171 ca      1  CNT         0.000000
   2265 C         -14.0721   -8.1245   56.4891 ca      1  CNT         0.000000
   2266 C         -13.3105   -9.3201   56.4891 ca      1  CNT         0.000000
   2267 C         -12.8913   -9.8918   57.7171 ca      1  CNT         0.000000
   2268 C         -11.9801  -10.9777   57.7171 ca      1  CNT         0.000000
   2269 C         -11.4898  -11.4898   56.4891 ca      1  CNT         0.000000
   2270 C         -10.4447  -12.4475   56.4891 ca      1  CNT         0.000000
   2271 C          -9.8918  -12.8913   57.7171 ca      1  CNT         0.000000
   2272 C          -8.7306  -13.7043   57.7171 ca      1  CNT         0.000000
   2273 C          -8.1245  -14.0721   56.4891 ca      1  CNT         0.000000
   2274 C          -6.8672  -14.7267   56.4891 ca      1  CNT         0.000000
   2275 C          -6.2183  -15.0122   57.7171 ca      1  CNT         0.000000
   2276 C          -4.8862  -15.4970   57.7171 ca      1  CNT         0.000000
   2277 C          -4.2056  -15.6954   56.4891 ca      1  CNT         0.000000
   2278 C          -2.8216  -16.0022   56.4891 ca      1  CNT         0.000000
   2279 C          -2.1209  -16.1101   57.7171 ca      1  CNT         0.000000
   2280 C          -0.7088  -16.2336   57.7171 ca      1  CNT         0.000000
   2281 C           0.0000  -16.2491   56.4891 ca      1  CNT         0.000000
   2282 C           1.4162  -16.1873   56.4891 ca      1  CNT         0.000000
   2283 C           2.1209  -16.1101   57.7171 ca      1  CNT         0.000000
   2284 C           3.5169  -15.8639   57.7171 ca      1  CNT         0.000000
   2285 C           4.2056  -15.6954   56.4891 ca      1  CNT         0.000000
   2286 C           5.5575  -15.2691   56.4891 ca      1  CNT         0.000000
   2287 C           6.2183  -15.0122   57.7171 ca      1  CNT         0.000000
   2288 C           7.5030  -14.4131   57.7171 ca      1  CNT         0.000000
   2289 C           8.1245  -14.0721   56.4891 ca      1  CNT         0.000000
   2290 C           9.3201  -13.3105   56.4891 ca      1  CNT         0.000000
   2291 C           9.8918  -12.8913   57.7171 ca      1  CNT         0.000000
   2292 C          10.9777  -11.9801   57.7171 ca      1  CNT         0.000000
   2293 C          11.4898  -11.4898   56.4891 ca      1  CNT         0.000000
   2294 C          12.4475  -10.4447   56.4891 ca      1  CNT         0.000000
   2295 C          12.8913   -9.8918   57.7171 ca      1  CNT         0.000000
   2296 C          13.7043   -8.7306   57.7171 ca      1  CNT         0.000000
   2297 C          14.0721   -8.1245   56.4891 ca      1  CNT         0.000000
   2298 C          14.7267   -6.8672   56.4891 ca      1  CNT         0.000000
   2299 C          15.0122   -6.2183   57.7171 ca      1  CNT         0.000000
   2300 C          15.4970   -4.8862   57.7171 ca      1  CNT         0.000000
   2301 C          15.6954   -4.2056   56.4891 ca      1  CNT         0.000000
   2302 C          16.0022   -2.8216   56.4891 ca      1  CNT         0.000000
   2303 C          16.1101   -2.1209   57.7171 ca      1  CNT         0.000000
   2304 C          16.2336   -0.7088   57.7171 ca      1  CNT         0.000000
   2305 C          16.2491    0.0000   58.9452 ca      1  CNT         0.000000
   2306 C          16.1873    1.4162   58.9452 ca      1  CNT         0.000000
   2307 C          16.1101    2.1209   60.1732 ca      1  CNT         0.000000
   2308 C          15.8639    3.5169   60.1732 ca      1  CNT         0.000000
   2309 C          15.6954    4.2056   58.9452 ca      1  CNT         0.000000
   2310 C          15.2691    5.5575   58.9452 ca      1  CNT         0.000000
   2311 C          15.0122    6.2183   60.1732 ca      1  CNT         0.000000
   2312 C          14.4131    7.5030   60.1732 ca      1  CNT         0.000000
   2313 C          14.0721    8.1245   58.9452 ca      1  CNT         0.000000
   2314 C          13.3105    9.3201   58.9452 ca      1  CNT         0.000000
   2315 C          12.8913    9.8918   60.1732 ca      1  CNT         0.000000
   2316 C          11.9801   10.9777   60.1732 ca      1  CNT         0.000000
   2317 C          11.4898   11.4898   58.9452 ca      1  CNT         0.000000
   2318 C          10.4447   12.4475   58.9452 ca      1  CNT         0.000000
   2319 C           9.8918   12.8913   60.1732 ca      1  CNT         0.000000
   2320 C           8.7306   13.7043   60.1732 ca      1  CNT         0.000000
   2321 C           8.1245   14.0721   58.9452 ca      1  CNT         0.000000
   2322 C           6.8672   14.7267   58.9452 ca      1  CNT         0.000000
   2323 C           6.2183   15.0122   60.1732 ca      1  CNT         0.000000
   2324 C           4.8862   15.4970   60.1732 ca      1  CNT         0.000000
   2325 C           4.2056   15.6954   58.9452 ca      1  CNT         0.000000
   2326 C           2.8216   16.0022   58.9452 ca      1  CNT         0.000000
   2327 C           2.1209   16.1101   60.1732 ca      1  CNT         0.000000
   2328 C           0.7088   16.2336   60.1732 ca      1  CNT         0.000000
   2329 C          -0.0000   16.2491   58.9452 ca      1  CNT         0.000000
   2330 C          -1.4162   16.1873   58.9452 ca      1  CNT         0.000000
   2331 C          -2.1209   16.1101   60.1732 ca      1  CNT         0.000000
   2332 C          -3.5169   15.8639   60.1732 ca      1  CNT         0.000000
   2333 C          -4.2056   15.6954   58.9452 ca      1  CNT         0.000000
   2334 C          -5.5575   15.2691   58.9452 ca      1  CNT         0.000000
   2335 C          -6.2183   15.0122   60.1732 ca      1  CNT         0.000000
   2336 C          -7.5030   14.4131   60.1732 ca      1  CNT         0.000000
   2337 C          -8.1245   14.0721   58.9452 ca      1  CNT         0.000000
   2338 C          -9.3201   13.3105   58.9452 ca      1  CNT         0.000000
   2339 C          -9.8918   12.8913   60.1732 ca      1  CNT         0.000000
   2340 C         -10.9777   11.9801   60.1732 ca      1  CNT         0.000000
   2341 C         -11.4898   11.4898   58.9452 ca      1  CNT         0.000000
   2342 C         -12.4475   10.4447   58.9452 ca      1  CNT         0.000000
   2343 C         -12.8913    9.8918   60.1732 ca      1  CNT         0.000000
   2344 C         -13.7043    8.7306   60.1732 ca      1  CNT         0.000000
   2345 C         -14.0721    8.1245   58.9452 ca      1  CNT         0.000000
   2346 C         -14.7267    6.8672   58.9452 ca      1  CNT         0.000000
   2347 C         -15.0122    6.2183   60.1732 ca      1  CNT         0.000000
   2348 C         -15.4970    4.8862   60.1732 ca      1  CNT         0.000000
   2349 C         -15.6954    4.2056   58.9452 ca      1  CNT         0.000000
   2350 C         -16.0022    2.8216   58.9452 ca      1  CNT         0.000000
   2351 C         -16.1101    2.1209   60.1732 ca      1  CNT         0.000000
   2352 C         -16.2336    0.7088   60.1732 ca      1  CNT         0.000000
   2353 C         -16.2491   -0.0000   58.9452 ca      1  CNT         0.000000
   2354 C         -16.1873   -1.4162   58.9452 ca      1  CNT         0.000000
   2355 C         -16.1101   -2.1209   60.1732 ca      1  CNT         0.000000
   2356 C         -15.8639   -3.5169   60.1732 ca      1  CNT         0.000000
   2357 C         -15.6954   -4.2056   58.9452 ca      1  CNT         0.000000
   2358 C         -15.2691   -5.5575   58.9452 ca      1  CNT         0.000000
   2359 C         -15.0122   -6.2183   60.1732 ca      1  CNT         0.000000
   2360 C         -14.4131   -7.5030   60.1732 ca      1  CNT         0.000000
   2361 C         -14.0721   -8.1245   58.9452 ca      1  CNT         0.000000
   2362 C         -13.3105   -9.3201   58.9452 ca      1  CNT         0.000000
   2363 C         -12.8913   -9.8918   60.1732 ca      1  CNT         0.000000
   2364 C         -11.9801  -10.9777   60.1732 ca      1  CNT         0.000000
   2365 C         -11.4898  -11.4898   58.9452 ca      1  CNT         0.000000
   2366 C         -10.4447  -12.4475   58.9452 ca      1  CNT         0.000000
   2367 C          -9.8918  -12.8913   60.1732 ca      1  CNT         0.000000
   2368 C          -8.7306  -13.7043   60.1732 ca      1  CNT         0.000000
   2369 C          -8.1245  -14.0721   58.9452 ca      1  CNT         0.000000
   2370 C          -6.8672  -14.7267   58.9452 ca      1  CNT         0.000000
   2371 C          -6.2183  -15.0122   60.1732 ca      1  CNT         0.000000
   2372 C          -4.8862  -15.4970   60.1732 ca      1  CNT         0.000000
   2373 C          -4.2056  -15.6954   58.9452 ca      1  CNT         0.000000
   2374 C          -2.8216  -16.0022   58.9452 ca      1  CNT         0.000000
   2375 C          -2.1209  -16.1101   60.1732 ca      1  CNT         0.000000
   2376 C          -0.7088  -16.2336   60.1732 ca      1  CNT         0.000000
   2377 C           0.0000  -16.2491   58.9452 ca      1  CNT         0.000000
   2378 C           1.4162  -16.1873   58.9452 ca      1  CNT         0.000000
   2379 C           2.1209  -16.1101   60.1732 ca      1  CNT         0.000000
   2380 C           3.5169  -15.8639   60.1732 ca      1  CNT         0.000000
   2381 C           4.2056  -15.6954   58.9452 ca      1  CNT         0.000000
   2382 C           5.5575  -15.2691   58.9452 ca      1  CNT         0.000000
   2383 C           6.2183  -15.0122   60.1732 ca      1  CNT         0.000000
   2384 C           7.5030  -14.4131   60.1732 ca      1  CNT         0.000000
   2385 C           8.1245  -14.0721   58.9452 ca      1  CNT         0.000000
   2386 C           9.3201  -13.3105   58.9452 ca      1  CNT         0.000000
   2387 C           9.8918  -12.8913   60.1732 ca      1  CNT         0.000000
   2388 C          10.9777  -11.9801   60.1732 ca      1  CNT         0.000000
   2389 C          11.4898  -11.4898   58.9452 ca      1  CNT         0.000000
   2390 C          12.4475  -10.4447   58.9452 ca      1  CNT         0.000000
   2391 C          12.8913   -9.8918   60.1732 ca      1  CNT         0.000000
   2392 C          13.7043   -8.7306   60.1732 ca      1  CNT         0.000000
   2393 C          14.0721   -8.1245   58.9452 ca      1  CNT         0.000000
   2394 C          14.7267   -6.8672   58.9452 ca      1  CNT         0.000000
   2395 C          15.0122   -6.2183   60.1732 ca      1  CNT         0.000000
   2396 C          15.4970   -4.8862   60.1732 ca      1  CNT         0.000000
   2397 C          15.6954   -4.2056   58.9452 ca      1  CNT         0.000000
   2398 C          16.0022   -2.8216   58.9452 ca      1  CNT         0.000000
   2399 C          16.1101   -2.1209   60.1732 ca      1  CNT         0.000000
   2400 C          16.2336   -0.7088   60.1732 ca      1  CNT         0.000000
   2401 C          16.2491    0.0000   61.4012 ca      1  CNT         0.000000
   2402 C          16.1873    1.4162   61.4012 ca      1  CNT         0.000000
   2403 C          16.1101    2.1209   62.6292 ca      1  CNT         0.000000
   2404 C          15.8639    3.5169   62.6292 ca      1  CNT         0.000000
   2405 C          15.6954    4.2056   61.4012 ca      1  CNT         0.000000
   2406 C          15.2691    5.5575   61.4012 ca      1  CNT         0.000000
   2407 C          15.0122    6.2183   62.6292 ca      1  CNT         0.000000
   2408 C          14.4131    7.5030   62.6292 ca      1  CNT         0.000000
   2409 C          14.0721    8.1245   61.4012 ca      1  CNT         0.000000
   2410 C          13.3105    9.3201   61.4012 ca      1  CNT         0.000000
   2411 C          12.8913    9.8918   62.6292 ca      1  CNT         0.000000
   2412 C          11.9801   10.9777   62.6292 ca      1  CNT         0.000000
   2413 C          11.4898   11.4898   61.4012 ca      1  CNT         0.000000
   2414 C          10.4447   12.4475   61.4012 ca      1  CNT         0.000000
   2415 C           9.8918   12.8913   62.6292 ca      1  CNT         0.000000
   2416 C           8.7306   13.7043   62.6292 ca      1  CNT         0.000000
   2417 C           8.1245   14.0721   61.4012 ca      1  CNT         0.000000
   2418 C           6.8672   14.7267   61.4012 ca      1  CNT         0.000000
   2419 C           6.2183   15.0122   62.6292 ca      1  CNT         0.000000
   2420 C           4.8862   15.4970   62.6292 ca      1  CNT         0.000000
   2421 C           4.2056   15.6954   61.4012 ca      1  CNT         0.000000
   2422 C           2.8216   16.0022   61.4012 ca      1  CNT         0.000000
   2423 C           2.1209   16.1101   62.6292 ca      1  CNT         0.000000
   2424 C           0.7088   16.2336   62.6292 ca      1  CNT         0.000000
   2425 C          -0.0000   16.2491   61.4012 ca      1  CNT         0.000000
   2426 C          -1.4162   16.1873   61.4012 ca      1  CNT         0.000000
   2427 C          -2.1209   16.1101   62.6292 ca      1  CNT         0.000000
   2428 C          -3.5169   15.8639   62.6292 ca      1  CNT         0.000000
   2429 C          -4.2056   15.6954   61.4012 ca      1  CNT         0.000000
   2430 C          -5.5575   15.2691   61.4012 ca      1  CNT         0.000000
   2431 C          -6.2183   15.0122   62.6292 ca      1  CNT         0.000000
   2432 C          -7.5030   14.4131   62.6292 ca      1  CNT         0.000000
   2433 C          -8.1245   14.0721   61.4012 ca      1  CNT         0.000000
   2434 C          -9.3201   13.3105   61.4012 ca      1  CNT         0.000000
   2435 C          -9.8918   12.8913   62.6292 ca      1  CNT         0.000000
   2436 C         -10.9777   11.9801   62.6292 ca      1  CNT         0.000000
   2437 C         -11.4898   11.4898   61.4012 ca      1  CNT         0.000000
   2438 C         -12.4475   10.4447   61.4012 ca      1  CNT         0.000000
   2439 C         -12.8913    9.8918   62.6292 ca      1  CNT         0.000000
   2440 C         -13.7043    8.7306   62.6292 ca      1  CNT         0.000000
   2441 C         -14.0721    8.1245   61.4012 ca      1  CNT         0.000000
   2442 C         -14.7267    6.8672   61.4012 ca      1  CNT         0.000000
   2443 C         -15.0122    6.2183   62.6292 ca      1  CNT         0.000000
   2444 C         -15.4970    4.8862   62.6292 ca      1  CNT         0.000000
   2445 C         -15.6954    4.2056   61.4012 ca      1  CNT         0.000000
   2446 C         -16.0022    2.8216   61.4012 ca      1  CNT         0.000000
   2447 C         -16.1101    2.1209   62.6292 ca      1  CNT         0.000000
   2448 C         -16.2336    0.7088   62.6292 ca      1  CNT         0.000000
   2449 C         -16.2491   -0.0000   61.4012 ca      1  CNT         0.000000
   2450 C         -16.1873   -1.4162   61.4012 ca      1  CNT         0.000000
   2451 C         -16.1101   -2.1209   62.6292 ca      1  CNT         0.000000
   2452 C         -15.8639   -3.5169   62.6292 ca      1  CNT         0.000000
   2453 C         -15.6954   -4.2056   61.4012 ca      1  CNT         0.000000
   2454 C         -15.2691   -5.5575   61.4012 ca      1  CNT         0.000000
   2455 C         -15.0122   -6.2183   62.6292 ca      1  CNT         0.000000
   2456 C         -14.4131   -7.5030   62.6292 ca      1  CNT         0.000000
   2457 C         -14.0721   -8.1245   61.4012 ca      1  CNT         0.000000
   2458 C         -13.3105   -9.3201   61.4012 ca      1  CNT         0.000000
   2459 C         -12.8913   -9.8918   62.6292 ca      1  CNT         0.000000
   2460 C         -11.9801  -10.9777   62.6292 ca      1  CNT         0.000000
   2461 C         -11.4898  -11.4898   61.4012 ca      1  CNT         0.000000
   2462 C         -10.4447  -12.4475   61.4012 ca      1  CNT         0.000000
   2463 C          -9.8918  -12.8913   62.6292 ca      1  CNT         0.000000
   2464 C          -8.7306  -13.7043   62.6292 ca      1  CNT         0.000000
   2465 C          -8.1245  -14.0721   61.4012 ca      1  CNT         0.000000
   2466 C          -6.8672  -14.7267   61.4012 ca      1  CNT         0.000000
   2467 C          -6.2183  -15.0122   62.6292 ca      1  CNT         0.000000
   2468 C          -4.8862  -15.4970   62.6292 ca      1  CNT         0.000000
   2469 C          -4.2056  -15.6954   61.4012 ca      1  CNT         0.000000
   2470 C          -2.8216  -16.0022   61.4012 ca      1  CNT         0.000000
   2471 C          -2.1209  -16.1101   62.6292 ca      1  CNT         0.000000
   2472 C          -0.7088  -16.2336   62.6292 ca      1  CNT         0.000000
   2473 C           0.0000  -16.2491   61.4012 ca      1  CNT         0.000000
   2474 C           1.4162  -16.1873   61.4012 ca      1  CNT         0.000000
   2475 C           2.1209  -16.1101   62.6292 ca      1  CNT         0.000000
   2476 C           3.5169  -15.8639   62.6292 ca      1  CNT         0.000000
   2477 C           4.2056  -15.6954   61.4012 ca      1  CNT         0.000000
   2478 C           5.5575  -15.2691   61.4012 ca      1  CNT         0.000000
   2479 C           6.2183  -15.0122   62.6292 ca      1  CNT         0.000000
   2480 C           7.5030  -14.4131   62.6292 ca      1  CNT         0.000000
   2481 C           8.1245  -14.0721   61.4012 ca      1  CNT         0.000000
   2482 C           9.3201  -13.3105   61.4012 ca      1  CNT         0.000000
   2483 C           9.8918  -12.8913   62.6292 ca      1  CNT         0.000000
   2484 C          10.9777  -11.9801   62.6292 ca      1  CNT         0.000000
   2485 C          11.4898  -11.4898   61.4012 ca      1  CNT         0.000000
   2486 C          12.4475  -10.4447   61.4012 ca      1  CNT         0.000000
   2487 C          12.8913   -9.8918   62.6292 ca      1  CNT         0.000000
   2488 C          13.7043   -8.7306   62.6292 ca      1  CNT         0.000000
   2489 C          14.0721   -8.1245   61.4012 ca      1  CNT         0.000000
   2490 C          14.7267   -6.8672   61.4012 ca      1  CNT         0.000000
   2491 C          15.0122   -6.2183   62.6292 ca      1  CNT         0.000000
   2492 C          15.4970   -4.8862   62.6292 ca      1  CNT         0.000000
   2493 C          15.6954   -4.2056   61.4012 ca      1  CNT         0.000000
   2494 C          16.0022   -2.8216   61.4012 ca      1  CNT         0.000000
   2495 C          16.1101   -2.1209   62.6292 ca      1  CNT         0.000000
   2496 C          16.2336   -0.7088   62.6292 ca      1  CNT         0.000000
   2497 C          16.2491    0.0000   63.8573 ca      1  CNT         0.000000
   2498 C          16.1873    1.4162   63.8573 ca      1  CNT         0.000000
   2499 C          16.1101    2.1209   65.0853 ca      1  CNT         0.000000
   2500 C          15.8639    3.5169   65.0853 ca      1  CNT         0.000000
   2501 C          15.6954    4.2056   63.8573 ca      1  CNT         0.000000
   2502 C          15.2691    5.5575   63.8573 ca      1  CNT         0.000000
   2503 C          15.0122    6.2183   65.0853 ca      1  CNT         0.000000
   2504 C          14.4131    7.5030   65.0853 ca      1  CNT         0.000000
   2505 C          14.0721    8.1245   63.8573 ca      1  CNT         0.000000
   2506 C          13.3105    9.3201   63.8573 ca      1  CNT         0.000000
   2507 C          12.8913    9.8918   65.0853 ca      1  CNT         0.000000
   2508 C          11.9801   10.9777   65.0853 ca      1  CNT         0.000000
   2509 C          11.4898   11.4898   63.8573 ca      1  CNT         0.000000
   2510 C          10.4447   12.4475   63.8573 ca      1  CNT         0.000000
   2511 C           9.8918   12.8913   65.0853 ca      1  CNT         0.000000
   2512 C           8.7306   13.7043   65.0853 ca      1  CNT         0.000000
   2513 C           8.1245   14.0721   63.8573 ca      1  CNT         0.000000
   2514 C           6.8672   14.7267   63.8573 ca      1  CNT         0.000000
   2515 C           6.2183   15.0122   65.0853 ca      1  CNT         0.000000
   2516 C           4.8862   15.4970   65.0853 ca      1  CNT         0.000000
   2517 C           4.2056   15.6954   63.8573 ca      1  CNT         0.000000
   2518 C           2.8216   16.0022   63.8573 ca      1  CNT         0.000000
   2519 C           2.1209   16.1101   65.0853 ca      1  CNT         0.000000
   2520 C           0.7088   16.2336   65.0853 ca      1  CNT         0.000000
   2521 C          -0.0000   16.2491   63.8573 ca      1  CNT         0.000000
   2522 C          -1.4162   16.1873   63.8573 ca      1  CNT         0.000000
   2523 C          -2.1209   16.1101   65.0853 ca      1  CNT         0.000000
   2524 C          -3.5169   15.8639   65.0853 ca      1  CNT         0.000000
   2525 C          -4.2056   15.6954   63.8573 ca      1  CNT         0.000000
   2526 C          -5.5575   15.2691   63.8573 ca      1  CNT         0.000000
   2527 C          -6.2183   15.0122   65.0853 ca      1  CNT         0.000000
   2528 C          -7.5030   14.4131   65.0853 ca      1  CNT         0.000000
   2529 C          -8.1245   14.0721   63.8573 ca      1  CNT         0.000000
   2530 C          -9.3201   13.3105   63.8573 ca      1  CNT         0.000000
   2531 C          -9.8918   12.8913   65.0853 ca      1  CNT         0.000000
   2532 C         -10.9777   11.9801   65.0853 ca      1  CNT         0.000000
   2533 C         -11.4898   11.4898   63.8573 ca      1  CNT         0.000000
   2534 C         -12.4475   10.4447   63.8573 ca      1  CNT         0.000000
   2535 C         -12.8913    9.8918   65.0853 ca      1  CNT         0.000000
   2536 C         -13.7043    8.7306   65.0853 ca      1  CNT         0.000000
   2537 C         -14.0721    8.1245   63.8573 ca      1  CNT         0.000000
   2538 C         -14.7267    6.8672   63.8573 ca      1  CNT         0.000000
   2539 C         -15.0122    6.2183   65.0853 ca      1  CNT         0.000000
   2540 C         -15.4970    4.8862   65.0853 ca      1  CNT         0.000000
   2541 C         -15.6954    4.2056   63.8573 ca      1  CNT         0.000000
   2542 C         -16.0022    2.8216   63.8573 ca      1  CNT         0.000000
   2543 C         -16.1101    2.1209   65.0853 ca      1  CNT         0.000000
   2544 C         -16.2336    0.7088   65.0853 ca      1  CNT         0.000000
   2545 C         -16.2491   -0.0000   63.8573 ca      1  CNT         0.000000
   2546 C         -16.1873   -1.4162   63.8573 ca      1  CNT         0.000000
   2547 C         -16.1101   -2.1209   65.0853 ca      1  CNT         0.000000
   2548 C         -15.8639   -3.5169   65.0853 ca      1  CNT         0.000000
   2549 C         -15.6954   -4.2056   63.8573 ca      1  CNT         0.000000
   2550 C         -15.2691   -5.5575   63.8573 ca      1  CNT         0.000000
   2551 C         -15.0122   -6.2183   65.0853 ca      1  CNT         0.000000
   2552 C         -14.4131   -7.5030   65.0853 ca      1  CNT         0.000000
   2553 C         -14.0721   -8.1245   63.8573 ca      1  CNT         0.000000
   2554 C         -13.3105   -9.3201   63.8573 ca      1  CNT         0.000000
   2555 C         -12.8913   -9.8918   65.0853 ca      1  CNT         0.000000
   2556 C         -11.9801  -10.9777   65.0853 ca      1  CNT         0.000000
   2557 C         -11.4898  -11.4898   63.8573 ca      1  CNT         0.000000
   2558 C         -10.4447  -12.4475   63.8573 ca      1  CNT         0.000000
   2559 C          -9.8918  -12.8913   65.0853 ca      1  CNT         0.000000
   2560 C          -8.7306  -13.7043   65.0853 ca      1  CNT         0.000000
   2561 C          -8.1245  -14.0721   63.8573 ca      1  CNT         0.000000
   2562 C          -6.8672  -14.7267   63.8573 ca      1  CNT         0.000000
   2563 C          -6.2183  -15.0122   65.0853 ca      1  CNT         0.000000
   2564 C          -4.8862  -15.4970   65.0853 ca      1  CNT         0.000000
   2565 C          -4.2056  -15.6954   63.8573 ca      1  CNT         0.000000
   2566 C          -2.8216  -16.0022   63.8573 ca      1  CNT         0.000000
   2567 C          -2.1209  -16.1101   65.0853 ca      1  CNT         0.000000
   2568 C          -0.7088  -16.2336   65.0853 ca      1  CNT         0.000000
   2569 C           0.0000  -16.2491   63.8573 ca      1  CNT         0.000000
   2570 C           1.4162  -16.1873   63.8573 ca      1  CNT         0.000000
   2571 C           2.1209  -16.1101   65.0853 ca      1  CNT         0.000000
   2572 C           3.5169  -15.8639   65.0853 ca      1  CNT         0.000000
   2573 C           4.2056  -15.6954   63.8573 ca      1  CNT         0.000000
   2574 C           5.5575  -15.2691   63.8573 ca      1  CNT         0.000000
   2575 C           6.2183  -15.0122   65.0853 ca      1  CNT         0.000000
   2576 C           7.5030  -14.4131   65.0853 ca      1  CNT         0.000000
   2577 C           8.1245  -14.0721   63.8573 ca      1  CNT         0.000000
   2578 C           9.3201  -13.3105   63.8573 ca      1  CNT         0.000000
   2579 C           9.8918  -12.8913   65.0853 ca      1  CNT         0.000000
   2580 C          10.9777  -11.9801   65.0853 ca      1  CNT         0.000000
   2581 C          11.4898  -11.4898   63.8573 ca      1  CNT         0.000000
   2582 C          12.4475  -10.4447   63.8573 ca      1  CNT         0.000000
   2583 C          12.8913   -9.8918   65.0853 ca      1  CNT         0.000000
   2584 C          13.7043   -8.7306   65.0853 ca      1  CNT         0.000000
   2585 C          14.0721   -8.1245   63.8573 ca      1  CNT         0.000000
   2586 C          14.7267   -6.8672   63.8573 ca      1  CNT         0.000000
   2587 C          15.0122   -6.2183   65.0853 ca      1  CNT         0.000000
   2588 C          15.4970   -4.8862   65.0853 ca      1  CNT         0.000000
   2589 C          15.6954   -4.2056   63.8573 ca      1  CNT         0.000000
   2590 C          16.0022   -2.8216   63.8573 ca      1  CNT         0.000000
   2591 C          16.1101   -2.1209   65.0853 ca      1  CNT         0.000000
   2592 C          16.2336   -0.7088   65.0853 ca      1  CNT         0.000000
   2593 C          16.2491    0.0000   66.3133 ca      1  CNT         0.000000
   2594 C          16.1873    1.4162   66.3133 ca      1  CNT         0.000000
   2595 C          16.1101    2.1209   67.5413 ca      1  CNT         0.000000
   2596 C          15.8639    3.5169   67.5413 ca      1  CNT         0.000000
   2597 C          15.6954    4.2056   66.3133 ca      1  CNT         0.000000
   2598 C          15.2691    5.5575   66.3133 ca      1  CNT         0.000000
   2599 C          15.0122    6.2183   67.5413 ca      1  CNT         0.000000
   2600 C          14.4131    7.5030   67.5413 ca      1  CNT         0.000000
   2601 C          14.0721    8.1245   66.3133 ca      1  CNT         0.000000
   2602 C          13.3105    9.3201   66.3133 ca      1  CNT         0.000000
   2603 C          12.8913    9.8918   67.5413 ca      1  CNT         0.000000
   2604 C          11.9801   10.9777   67.5413 ca      1  CNT         0.000000
   2605 C          11.4898   11.4898   66.3133 ca      1  CNT         0.000000
   2606 C          10.4447   12.4475   66.3133 ca      1  CNT         0.000000
   2607 C           9.8918   12.8913   67.5413 ca      1  CNT         0.000000
   2608 C           8.7306   13.7043   67.5413 ca      1  CNT         0.000000
   2609 C           8.1245   14.0721   66.3133 ca      1  CNT         0.000000
   2610 C           6.8672   14.7267   66.3133 ca      1  CNT         0.000000
   2611 C           6.2183   15.0122   67.5413 ca      1  CNT         0.000000
   2612 C           4.8862   15.4970   67.5413 ca      1  CNT         0.000000
   2613 C           4.2056   15.6954   66.3133 ca      1  CNT         0.000000
   2614 C           2.8216   16.0022   66.3133 ca      1  CNT         0.000000
   2615 C           2.1209   16.1101   67.5413 ca      1  CNT         0.000000
   2616 C           0.7088   16.2336   67.5413 ca      1  CNT         0.000000
   2617 C          -0.0000   16.2491   66.3133 ca      1  CNT         0.000000
   2618 C          -1.4162   16.1873   66.3133 ca      1  CNT         0.000000
   2619 C          -2.1209   16.1101   67.5413 ca      1  CNT         0.000000
   2620 C          -3.5169   15.8639   67.5413 ca      1  CNT         0.000000
   2621 C          -4.2056   15.6954   66.3133 ca      1  CNT         0.000000
   2622 C          -5.5575   15.2691   66.3133 ca      1  CNT         0.000000
   2623 C          -6.2183   15.0122   67.5413 ca      1  CNT         0.000000
   2624 C          -7.5030   14.4131   67.5413 ca      1  CNT         0.000000
   2625 C          -8.1245   14.0721   66.3133 ca      1  CNT         0.000000
   2626 C          -9.3201   13.3105   66.3133 ca      1  CNT         0.000000
   2627 C          -9.8918   12.8913   67.5413 ca      1  CNT         0.000000
   2628 C         -10.9777   11.9801   67.5413 ca      1  CNT         0.000000
   2629 C         -11.4898   11.4898   66.3133 ca      1  CNT         0.000000
   2630 C         -12.4475   10.4447   66.3133 ca      1  CNT         0.000000
   2631 C         -12.8913    9.8918   67.5413 ca      1  CNT         0.000000
   2632 C         -13.7043    8.7306   67.5413 ca      1  CNT         0.000000
   2633 C         -14.0721    8.1245   66.3133 ca      1  CNT         0.000000
   2634 C         -14.7267    6.8672   66.3133 ca      1  CNT         0.000000
   2635 C         -15.0122    6.2183   67.5413 ca      1  CNT         0.000000
   2636 C         -15.4970    4.8862   67.5413 ca      1  CNT         0.000000
   2637 C         -15.6954    4.2056   66.3133 ca      1  CNT         0.000000
   2638 C         -16.0022    2.8216   66.3133 ca      1  CNT         0.000000
   2639 C         -16.1101    2.1209   67.5413 ca      1  CNT         0.000000
   2640 C         -16.2336    0.7088   67.5413 ca      1  CNT         0.000000
   2641 C         -16.2491   -0.0000   66.3133 ca      1  CNT         0.000000
   2642 C         -16.1873   -1.4162   66.3133 ca      1  CNT         0.000000
   2643 C         -16.1101   -2.1209   67.5413 ca      1  CNT         0.000000
   2644 C         -15.8639   -3.5169   67.5413 ca      1  CNT         0.000000
   2645 C         -15.6954   -4.2056   66.3133 ca      1  CNT         0.000000
   2646 C         -15.2691   -5.5575   66.3133 ca      1  CNT         0.000000
   2647 C         -15.0122   -6.2183   67.5413 ca      1  CNT         0.000000
   2648 C         -14.4131   -7.5030   67.5413 ca      1  CNT         0.000000
   2649 C         -14.0721   -8.1245   66.3133 ca      1  CNT         0.000000
   2650 C         -13.3105   -9.3201   66.3133 ca      1  CNT         0.000000
   2651 C         -12.8913   -9.8918   67.5413 ca      1  CNT         0.000000
   2652 C         -11.9801  -10.9777   67.5413 ca      1  CNT         0.000000
   2653 C         -11.4898  -11.4898   66.3133 ca      1  CNT         0.000000
   2654 C         -10.4447  -12.4475   66.3133 ca      1  CNT         0.000000
   2655 C          -9.8918  -12.8913   67.5413 ca      1  CNT         0.000000
   2656 C          -8.7306  -13.7043   67.5413 ca      1  CNT         0.000000
   2657 C          -8.1245  -14.0721   66.3133 ca      1  CNT         0.000000
   2658 C          -6.8672  -14.7267   66.3133 ca      1  CNT         0.000000
   2659 C          -6.2183  -15.0122   67.5413 ca      1  CNT         0.000000
   2660 C          -4.8862  -15.4970   67.5413 ca      1  CNT         0.000000
   2661 C          -4.2056  -15.6954   66.3133 ca      1  CNT         0.000000
   2662 C          -2.8216  -16.0022   66.3133 ca      1  CNT         0.000000
   2663 C          -2.1209  -16.1101   67.5413 ca      1  CNT         0.000000
   2664 C          -0.7088  -16.2336   67.5413 ca      1  CNT         0.000000
   2665 C           0.0000  -16.2491   66.3133 ca      1  CNT         0.000000
   2666 C           1.4162  -16.1873   66.3133 ca      1  CNT         0.000000
   2667 C           2.1209  -16.1101   67.5413 ca      1  CNT         0.000000
   2668 C           3.5169  -15.8639   67.5413 ca      1  CNT         0.000000
   2669 C           4.2056  -15.6954   66.3133 ca      1  CNT         0.000000
   2670 C           5.5575  -15.2691   66.3133 ca      1  CNT         0.000000
   2671 C           6.2183  -15.0122   67.5413 ca      1  CNT         0.000000
   2672 C           7.5030  -14.4131   67.5413 ca      1  CNT         0.000000
   2673 C           8.1245  -14.0721   66.3133 ca      1  CNT         0.000000
   2674 C           9.3201  -13.3105   66.3133 ca      1  CNT         0.000000
   2675 C           9.8918  -12.8913   67.5413 ca      1  CNT         0.000000
   2676 C          10.9777  -11.9801   67.5413 ca      1  CNT         0.000000
   2677 C          11.4898  -11.4898   66.3133 ca      1  CNT         0.000000
   2678 C          12.4475  -10.4447   66.3133 ca      1  CNT         0.000000
   2679 C          12.8913   -9.8918   67.5413 ca      1  CNT         0.000000
   2680 C          13.7043   -8.7306   67.5413 ca      1  CNT         0.000000
   2681 C          14.0721   -8.1245   66.3133 ca      1  CNT         0.000000
   2682 C          14.7267   -6.8672   66.3133 ca      1  CNT         0.000000
   2683 C          15.0122   -6.2183   67.5413 ca      1  CNT         0.000000
   2684 C          15.4970   -4.8862   67.5413 ca      1  CNT         0.000000
   2685 C          15.6954   -4.2056   66.3133 ca      1  CNT         0.000000
   2686 C          16.0022   -2.8216   66.3133 ca      1  CNT         0.000000
   2687 C          16.1101   -2.1209   67.5413 ca      1  CNT         0.000000
   2688 C          16.2336   -0.7088   67.5413 ca      1  CNT         0.000000
   2689 C          16.2491    0.0000   68.7693 ca      1  CNT         0.000000
   2690 C          16.1873    1.4162   68.7693 ca      1  CNT         0.000000
   2691 C          16.1101    2.1209   69.9974 ca      1  CNT         0.000000
   2692 C          15.8639    3.5169   69.9974 ca      1  CNT         0.000000
   2693 C          15.6954    4.2056   68.7693 ca      1  CNT         0.000000
   2694 C          15.2691    5.5575   68.7693 ca      1  CNT         0.000000
   2695 C          15.0122    6.2183   69.9974 ca      1  CNT         0.000000
   2696 C          14.4131    7.5030   69.9974 ca      1  CNT         0.000000
   2697 C          14.0721    8.1245   68.7693 ca      1  CNT         0.000000
   2698 C          13.3105    9.3201   68.7693 ca      1  CNT         0.000000
   2699 C          12.8913    9.8918   69.9974 ca      1  CNT         0.000000
   2700 C          11.9801   10.9777   69.9974 ca      1  CNT         0.000000
   2701 C          11.4898   11.4898   68.7693 ca      1  CNT         0.000000
   2702 C          10.4447   12.4475   68.7693 ca      1  CNT         0.000000
   2703 C           9.8918   12.8913   69.9974 ca      1  CNT         0.000000
   2704 C           8.7306   13.7043   69.9974 ca      1  CNT         0.000000
   2705 C           8.1245   14.0721   68.7693 ca      1  CNT         0.000000
   2706 C           6.8672   14.7267   68.7693 ca      1  CNT         0.000000
   2707 C           6.2183   15.0122   69.9974 ca      1  CNT         0.000000
   2708 C           4.8862   15.4970   69.9974 ca      1  CNT         0.000000
   2709 C           4.2056   15.6954   68.7693 ca      1  CNT         0.000000
   2710 C           2.8216   16.0022   68.7693 ca      1  CNT         0.000000
   2711 C           2.1209   16.1101   69.9974 ca      1  CNT         0.000000
   2712 C           0.7088   16.2336   69.9974 ca      1  CNT         0.000000
   2713 C          -0.0000   16.2491   68.7693 ca      1  CNT         0.000000
   2714 C          -1.4162   16.1873   68.7693 ca      1  CNT         0.000000
   2715 C          -2.1209   16.1101   69.9974 ca      1  CNT         0.000000
   2716 C          -3.5169   15.8639   69.9974 ca      1  CNT         0.000000
   2717 C          -4.2056   15.6954   68.7693 ca      1  CNT         0.000000
   2718 C          -5.5575   15.2691   68.7693 ca      1  CNT         0.000000
   2719 C          -6.2183   15.0122   69.9974 ca      1  CNT         0.000000
   2720 C          -7.5030   14.4131   69.9974 ca      1  CNT         0.000000
   2721 C          -8.1245   14.0721   68.7693 ca      1  CNT         0.000000
   2722 C          -9.3201   13.3105   68.7693 ca      1  CNT         0.000000
   2723 C          -9.8918   12.8913   69.9974 ca      1  CNT         0.000000
   2724 C         -10.9777   11.9801   69.9974 ca      1  CNT         0.000000
   2725 C         -11.4898   11.4898   68.7693 ca      1  CNT         0.000000
   2726 C         -12.4475   10.4447   68.7693 ca      1  CNT         0.000000
   2727 C         -12.8913    9.8918   69.9974 ca      1  CNT         0.000000
   2728 C         -13.7043    8.7306   69.9974 ca      1  CNT         0.000000
   2729 C         -14.0721    8.1245   68.7693 ca      1  CNT         0.000000
   2730 C         -14.7267    6.8672   68.7693 ca      1  CNT         0.000000
   2731 C         -15.0122    6.2183   69.9974 ca      1  CNT         0.000000
   2732 C         -15.4970    4.8862   69.9974 ca      1  CNT         0.000000
   2733 C         -15.6954    4.2056   68.7693 ca      1  CNT         0.000000
   2734 C         -16.0022    2.8216   68.7693 ca      1  CNT         0.000000
   2735 C         -16.1101    2.1209   69.9974 ca      1  CNT         0.000000
   2736 C         -16.2336    0.7088   69.9974 ca      1  CNT         0.000000
   2737 C         -16.2491   -0.0000   68.7693 ca      1  CNT         0.000000
   2738 C         -16.1873   -1.4162   68.7693 ca      1  CNT         0.000000
   2739 C         -16.1101   -2.1209   69.9974 ca      1  CNT         0.000000
   2740 C         -15.8639   -3.5169   69.9974 ca      1  CNT         0.000000
   2741 C         -15.6954   -4.2056   68.7693 ca      1  CNT         0.000000
   2742 C         -15.2691   -5.5575   68.7693 ca      1  CNT         0.000000
   2743 C         -15.0122   -6.2183   69.9974 ca      1  CNT         0.000000
   2744 C         -14.4131   -7.5030   69.9974 ca      1  CNT         0.000000
   2745 C         -14.0721   -8.1245   68.7693 ca      1  CNT         0.000000
   2746 C         -13.3105   -9.3201   68.7693 ca      1  CNT         0.000000
   2747 C         -12.8913   -9.8918   69.9974 ca      1  CNT         0.000000
   2748 C         -11.9801  -10.9777   69.9974 ca      1  CNT         0.000000
   2749 C         -11.4898  -11.4898   68.7693 ca      1  CNT         0.000000
   2750 C         -10.4447  -12.4475   68.7693 ca      1  CNT         0.000000
   2751 C          -9.8918  -12.8913   69.9974 ca      1  CNT         0.000000
   2752 C          -8.7306  -13.7043   69.9974 ca      1  CNT         0.000000
   2753 C          -8.1245  -14.0721   68.7693 ca      1  CNT         0.000000
   2754 C          -6.8672  -14.7267   68.7693 ca      1  CNT         0.000000
   2755 C          -6.2183  -15.0122   69.9974 ca      1  CNT         0.000000
   2756 C          -4.8862  -15.4970   69.9974 ca      1  CNT         0.000000
   2757 C          -4.2056  -15.6954   68.7693 ca      1  CNT         0.000000
   2758 C          -2.8216  -16.0022   68.7693 ca      1  CNT         0.000000
   2759 C          -2.1209  -16.1101   69.9974 ca      1  CNT         0.000000
   2760 C          -0.7088  -16.2336   69.9974 ca      1  CNT         0.000000
   2761 C           0.0000  -16.2491   68.7693 ca      1  CNT         0.000000
   2762 C           1.4162  -16.1873   68.7693 ca      1  CNT         0.000000
   2763 C           2.1209  -16.1101   69.9974 ca      1  CNT         0.000000
   2764 C           3.5169  -15.8639   69.9974 ca      1  CNT         0.000000
   2765 C           4.2056  -15.6954   68.7693 ca      1  CNT         0.000000
   2766 C           5.5575  -15.2691   68.7693 ca      1  CNT         0.000000
   2767 C           6.2183  -15.0122   69.9974 ca      1  CNT         0.000000
   2768 C           7.5030  -14.4131   69.9974 ca      1  CNT         0.000000
   2769 C           8.1245  -14.0721   68.7693 ca      1  CNT         0.000000
   2770 C           9.3201  -13.3105   68.7693 ca      1  CNT         0.000000
   2771 C           9.8918  -12.8913   69.9974 ca      1  CNT         0.000000
   2772 C          10.9777  -11.9801   69.9974 ca      1  CNT         0.000000
   2773 C          11.4898  -11.4898   68.7693 ca      1  CNT         0.000000
   2774 C          12.4475  -10.4447   68.7693 ca      1  CNT         0.000000
   2775 C          12.8913   -9.8918   69.9974 ca      1  CNT         0.000000
   2776 C          13.7043   -8.7306   69.9974 ca      1  CNT         0.000000
   2777 C          14.0721   -8.1245   68.7693 ca      1  CNT         0.000000
   2778 C          14.7267   -6.8672   68.7693 ca      1  CNT         0.000000
   2779 C          15.0122   -6.2183   69.9974 ca      1  CNT         0.000000
   2780 C          15.4970   -4.8862   69.9974 ca      1  CNT         0.000000
   2781 C          15.6954   -4.2056   68.7693 ca      1  CNT         0.000000
   2782 C          16.0022   -2.8216   68.7693 ca      1  CNT         0.000000
   2783 C          16.1101   -2.1209   69.9974 ca      1  CNT         0.000000
   2784 C          16.2336   -0.7088   69.9974 ca      1  CNT         0.000000
   2785 C          16.2491    0.0000   71.2254 ca      1  CNT         0.000000
   2786 C          16.1873    1.4162   71.2254 ca      1  CNT         0.000000
   2787 C          16.1101    2.1209   72.4534 ca      1  CNT         0.000000
   2788 C          15.8639    3.5169   72.4534 ca      1  CNT         0.000000
   2789 C          15.6954    4.2056   71.2254 ca      1  CNT         0.000000
   2790 C          15.2691    5.5575   71.2254 ca      1  CNT         0.000000
   2791 C          15.0122    6.2183   72.4534 ca      1  CNT         0.000000
   2792 C          14.4131    7.5030   72.4534 ca      1  CNT         0.000000
   2793 C          14.0721    8.1245   71.2254 ca      1  CNT         0.000000
   2794 C          13.3105    9.3201   71.2254 ca      1  CNT         0.000000
   2795 C          12.8913    9.8918   72.4534 ca      1  CNT         0.000000
   2796 C          11.9801   10.9777   72.4534 ca      1  CNT         0.000000
   2797 C          11.4898   11.4898   71.2254 ca      1  CNT         0.000000
   2798 C          10.4447   12.4475   71.2254 ca      1  CNT         0.000000
   2799 C           9.8918   12.8913   72.4534 ca      1  CNT         0.000000
   2800 C           8.7306   13.7043   72.4534 ca      1  CNT         0.000000
   2801 C           8.1245   14.0721   71.2254 ca      1  CNT         0.000000
   2802 C           6.8672   14.7267   71.2254 ca      1  CNT         0.000000
   2803 C           6.2183   15.0122   72.4534 ca      1  CNT         0.000000
   2804 C           4.8862   15.4970   72.4534 ca      1  CNT         0.000000
   2805 C           4.2056   15.6954   71.2254 ca      1  CNT         0.000000
   2806 C           2.8216   16.0022   71.2254 ca      1  CNT         0.000000
   2807 C           2.1209   16.1101   72.4534 ca      1  CNT         0.000000
   2808 C           0.7088   16.2336   72.4534 ca      1  CNT         0.000000
   2809 C          -0.0000   16.2491   71.2254 ca      1  CNT         0.000000
   2810 C          -1.4162   16.1873   71.2254 ca      1  CNT         0.000000
   2811 C          -2.1209   16.1101   72.4534 ca      1  CNT         0.000000
   2812 C          -3.5169   15.8639   72.4534 ca      1  CNT         0.000000
   2813 C          -4.2056   15.6954   71.2254 ca      1  CNT         0.000000
   2814 C          -5.5575   15.2691   71.2254 ca      1  CNT         0.000000
   2815 C          -6.2183   15.0122   72.4534 ca      1  CNT         0.000000
   2816 C          -7.5030   14.4131   72.4534 ca      1  CNT         0.000000
   2817 C          -8.1245   14.0721   71.2254 ca      1  CNT         0.000000
   2818 C          -9.3201   13.3105   71.2254 ca      1  CNT         0.000000
   2819 C          -9.8918   12.8913   72.4534 ca      1  CNT         0.000000
   2820 C         -10.9777   11.9801   72.4534 ca      1  CNT         0.000000
   2821 C         -11.4898   11.4898   71.2254 ca      1  CNT         0.000000
   2822 C         -12.4475   10.4447   71.2254 ca      1  CNT         0.000000
   2823 C         -12.8913    9.8918   72.4534 ca      1  CNT         0.000000
   2824 C         -13.7043    8.7306   72.4534 ca      1  CNT         0.000000
   2825 C         -14.0721    8.1245   71.2254 ca      1  CNT         0.000000
   2826 C         -14.7267    6.8672   71.2254 ca      1  CNT         0.000000
   2827 C         -15.0122    6.2183   72.4534 ca      1  CNT         0.000000
   2828 C         -15.4970    4.8862   72.4534 ca      1  CNT         0.000000
   2829 C         -15.6954    4.2056   71.2254 ca      1  CNT         0.000000
   2830 C         -16.0022    2.8216   71.2254 ca      1  CNT         0.000000
   2831 C         -16.1101    2.1209   72.4534 ca      1  CNT         0.000000
   2832 C         -16.2336    0.7088   72.4534 ca      1  CNT         0.000000
   2833 C         -16.2491   -0.0000   71.2254 ca      1  CNT         0.000000
   2834 C         -16.1873   -1.4162   71.2254 ca      1  CNT         0.000000
   2835 C         -16.1101   -2.1209   72.4534 ca      1  CNT         0.000000
   2836 C         -15.8639   -3.5169   72.4534 ca      1  CNT         0.000000
   2837 C         -15.6954   -4.2056   71.2254 ca      1  CNT         0.000000
   2838 C         -15.2691   -5.5575   71.2254 ca      1  CNT         0.000000
   2839 C         -15.0122   -6.2183   72.4534 ca      1  CNT         0.000000
   2840 C         -14.4131   -7.5030   72.4534 ca      1  CNT         0.000000
   2841 C         -14.0721   -8.1245   71.2254 ca      1  CNT         0.000000
   2842 C         -13.3105   -9.3201   71.2254 ca      1  CNT         0.000000
   2843 C         -12.8913   -9.8918   72.4534 ca      1  CNT         0.000000
   2844 C         -11.9801  -10.9777   72.4534 ca      1  CNT         0.000000
   2845 C         -11.4898  -11.4898   71.2254 ca      1  CNT         0.000000
   2846 C         -10.4447  -12.4475   71.2254 ca      1  CNT         0.000000
   2847 C          -9.8918  -12.8913   72.4534 ca      1  CNT         0.000000
   2848 C          -8.7306  -13.7043   72.4534 ca      1  CNT         0.000000
   2849 C          -8.1245  -14.0721   71.2254 ca      1  CNT         0.000000
   2850 C          -6.8672  -14.7267   71.2254 ca      1  CNT         0.000000
   2851 C          -6.2183  -15.0122   72.4534 ca      1  CNT         0.000000
   2852 C          -4.8862  -15.4970   72.4534 ca      1  CNT         0.000000
   2853 C          -4.2056  -15.6954   71.2254 ca      1  CNT         0.000000
   2854 C          -2.8216  -16.0022   71.2254 ca      1  CNT         0.000000
   2855 C          -2.1209  -16.1101   72.4534 ca      1  CNT         0.000000
   2856 C          -0.7088  -16.2336   72.4534 ca      1  CNT         0.000000
   2857 C           0.0000  -16.2491   71.2254 ca      1  CNT         0.000000
   2858 C           1.4162  -16.1873   71.2254 ca      1  CNT         0.000000
   2859 C           2.1209  -16.1101   72.4534 ca      1  CNT         0.000000
   2860 C           3.5169  -15.8639   72.4534 ca      1  CNT         0.000000
   2861 C           4.2056  -15.6954   71.2254 ca      1  CNT         0.000000
   2862 C           5.5575  -15.2691   71.2254 ca      1  CNT         0.000000
   2863 C           6.2183  -15.0122   72.4534 ca      1  CNT         0.000000
   2864 C           7.5030  -14.4131   72.4534 ca      1  CNT         0.000000
   2865 C           8.1245  -14.0721   71.2254 ca      1  CNT         0.000000
   2866 C           9.3201  -13.3105   71.2254 ca      1  CNT         0.000000
   2867 C           9.8918  -12.8913   72.4534 ca      1  CNT         0.000000
   2868 C          10.9777  -11.9801   72.4534 ca      1  CNT         0.000000
   2869 C          11.4898  -11.4898   71.2254 ca      1  CNT         0.000000
   2870 C          12.4475  -10.4447   71.2254 ca      1  CNT         0.000000
   2871 C          12.8913   -9.8918   72.4534 ca      1  CNT         0.000000
   2872 C          13.7043   -8.7306   72.4534 ca      1  CNT         0.000000
   2873 C          14.0721   -8.1245   71.2254 ca      1  CNT         0.000000
   2874 C          14.7267   -6.8672   71.2254 ca      1  CNT         0.000000
   2875 C          15.0122   -6.2183   72.4534 ca      1  CNT         0.000000
   2876 C          15.4970   -4.8862   72.4534 ca      1  CNT         0.000000
   2877 C          15.6954   -4.2056   71.2254 ca      1  CNT         0.000000
   2878 C          16.0022   -2.8216   71.2254 ca      1  CNT         0.000000
   2879 C          16.1101   -2.1209   72.4534 ca      1  CNT         0.000000
   2880 C          16.2336   -0.7088   72.4534 ca      1  CNT         0.000000
   2881 C          16.2491    0.0000   73.6814 ca      1  CNT         0.000000
   2882 C          16.1873    1.4162   73.6814 ca      1  CNT         0.000000
   2883 C          16.1101    2.1209   74.9095 ca      1  CNT         0.000000
   2884 C          15.8639    3.5169   74.9095 ca      1  CNT         0.000000
   2885 C          15.6954    4.2056   73.6814 ca      1  CNT         0.000000
   2886 C          15.2691    5.5575   73.6814 ca      1  CNT         0.000000
   2887 C          15.0122    6.2183   74.9095 ca      1  CNT         0.000000
   2888 C          14.4131    7.5030   74.9095 ca      1  CNT         0.000000
   2889 C          14.0721    8.1245   73.6814 ca      1  CNT         0.000000
   2890 C          13.3105    9.3201   73.6814 ca      1  CNT         0.000000
   2891 C          12.8913    9.8918   74.9095 ca      1  CNT         0.000000
   2892 C          11.9801   10.9777   74.9095 ca      1  CNT         0.000000
   2893 C          11.4898   11.4898   73.6814 ca      1  CNT         0.000000
   2894 C          10.4447   12.4475   73.6814 ca      1  CNT         0.000000
   2895 C           9.8918   12.8913   74.9095 ca      1  CNT         0.000000
   2896 C           8.7306   13.7043   74.9095 ca      1  CNT         0.000000
   2897 C           8.1245   14.0721   73.6814 ca      1  CNT         0.000000
   2898 C           6.8672   14.7267   73.6814 ca      1  CNT         0.000000
   2899 C           6.2183   15.0122   74.9095 ca      1  CNT         0.000000
   2900 C           4.8862   15.4970   74.9095 ca      1  CNT         0.000000
   2901 C           4.2056   15.6954   73.6814 ca      1  CNT         0.000000
   2902 C           2.8216   16.0022   73.6814 ca      1  CNT         0.000000
   2903 C           2.1209   16.1101   74.9095 ca      1  CNT         0.000000
   2904 C           0.7088   16.2336   74.9095 ca      1  CNT         0.000000
   2905 C          -0.0000   16.2491   73.6814 ca      1  CNT         0.000000
   2906 C          -1.4162   16.1873   73.6814 ca      1  CNT         0.000000
   2907 C          -2.1209   16.1101   74.9095 ca      1  CNT         0.000000
   2908 C          -3.5169   15.8639   74.9095 ca      1  CNT         0.000000
   2909 C          -4.2056   15.6954   73.6814 ca      1  CNT         0.000000
   2910 C          -5.5575   15.2691   73.6814 ca      1  CNT         0.000000
   2911 C          -6.2183   15.0122   74.9095 ca      1  CNT         0.000000
   2912 C          -7.5030   14.4131   74.9095 ca      1  CNT         0.000000
   2913 C          -8.1245   14.0721   73.6814 ca      1  CNT         0.000000
   2914 C          -9.3201   13.3105   73.6814 ca      1  CNT         0.000000
   2915 C          -9.8918   12.8913   74.9095 ca      1  CNT         0.000000
   2916 C         -10.9777   11.9801   74.9095 ca      1  CNT         0.000000
   2917 C         -11.4898   11.4898   73.6814 ca      1  CNT         0.000000
   2918 C         -12.4475   10.4447   73.6814 ca      1  CNT         0.000000
   2919 C         -12.8913    9.8918   74.9095 ca      1  CNT         0.000000
   2920 C         -13.7043    8.7306   74.9095 ca      1  CNT         0.000000
   2921 C         -14.0721    8.1245   73.6814 ca      1  CNT         0.000000
   2922 C         -14.7267    6.8672   73.6814 ca      1  CNT         0.000000
   2923 C         -15.0122    6.2183   74.9095 ca      1  CNT         0.000000
   2924 C         -15.4970    4.8862   74.9095 ca      1  CNT         0.000000
   2925 C         -15.6954    4.2056   73.6814 ca      1  CNT         0.000000
   2926 C         -16.0022    2.8216   73.6814 ca      1  CNT         0.000000
   2927 C         -16.1101    2.1209   74.9095 ca      1  CNT         0.000000
   2928 C         -16.2336    0.7088   74.9095 ca      1  CNT         0.000000
   2929 C         -16.2491   -0.0000   73.6814 ca      1  CNT         0.000000
   2930 C         -16.1873   -1.4162   73.6814 ca      1  CNT         0.000000
   2931 C         -16.1101   -2.1209   74.9095 ca      1  CNT         0.000000
   2932 C         -15.8639   -3.5169   74.9095 ca      1  CNT         0.000000
   2933 C         -15.6954   -4.2056   73.6814 ca      1  CNT         0.000000
   2934 C         -15.2691   -5.5575   73.6814 ca      1  CNT         0.000000
   2935 C         -15.0122   -6.2183   74.9095 ca      1  CNT         0.000000
   2936 C         -14.4131   -7.5030   74.9095 ca      1  CNT         0.000000
   2937 C         -14.0721   -8.1245   73.6814 ca      1  CNT         0.000000
   2938 C         -13.3105   -9.3201   73.6814 ca      1  CNT         0.000000
   2939 C         -12.8913   -9.8918   74.9095 ca      1  CNT         0.000000
   2940 C         -11.9801  -10.9777   74.9095 ca      1  CNT         0.000000
   2941 C         -11.4898  -11.4898   73.6814 ca      1  CNT         0.000000
   2942 C         -10.4447  -12.4475   73.6814 ca      1  CNT         0.000000
   2943 C          -9.8918  -12.8913   74.9095 ca      1  CNT         0.000000
   2944 C          -8.7306  -13.7043   74.9095 ca      1  CNT         0.000000
   2945 C          -8.1245  -14.0721   73.6814 ca      1  CNT         0.000000
   2946 C          -6.8672  -14.7267   73.6814 ca      1  CNT         0.000000
   2947 C          -6.2183  -15.0122   74.9095 ca      1  CNT         0.000000
   2948 C          -4.8862  -15.4970   74.9095 ca      1  CNT         0.000000
   2949 C          -4.2056  -15.6954   73.6814 ca      1  CNT         0.000000
   2950 C          -2.8216  -16.0022   73.6814 ca      1  CNT         0.000000
   2951 C          -2.1209  -16.1101   74.9095 ca      1  CNT         0.000000
   2952 C          -0.7088  -16.2336   74.9095 ca      1  CNT         0.000000
   2953 C           0.0000  -16.2491   73.6814 ca      1  CNT         0.000000
   2954 C           1.4162  -16.1873   73.6814 ca      1  CNT         0.000000
   2955 C           2.1209  -16.1101   74.9095 ca      1  CNT         0.000000
   2956 C           3.5169  -15.8639   74.9095 ca      1  CNT         0.000000
   2957 C           4.2056  -15.6954   73.6814 ca      1  CNT         0.000000
   2958 C           5.5575  -15.2691   73.6814 ca      1  CNT         0.000000
   2959 C           6.2183  -15.0122   74.9095 ca      1  CNT         0.000000
   2960 C           7.5030  -14.4131   74.9095 ca      1  CNT         0.000000
   2961 C           8.1245  -14.0721   73.6814 ca      1  CNT         0.000000
   2962 C           9.3201  -13.3105   73.6814 ca      1  CNT         0.000000
   2963 C           9.8918  -12.8913   74.9095 ca      1  CNT         0.000000
   2964 C          10.9777  -11.9801   74.9095 ca      1  CNT         0.000000
   2965 C          11.4898  -11.4898   73.6814 ca      1  CNT         0.000000
   2966 C          12.4475  -10.4447   73.6814 ca      1  CNT         0.000000
   2967 C          12.8913   -9.8918   74.9095 ca      1  CNT         0.000000
   2968 C          13.7043   -8.7306   74.9095 ca      1  CNT         0.000000
   2969 C          14.0721   -8.1245   73.6814 ca      1  CNT         0.000000
   2970 C          14.7267   -6.8672   73.6814 ca      1  CNT         0.000000
   2971 C          15.0122   -6.2183   74.9095 ca      1  CNT         0.000000
   2972 C          15.4970   -4.8862   74.9095 ca      1  CNT         0.000000
   2973 C          15.6954   -4.2056   73.6814 ca      1  CNT         0.000000
   2974 C          16.0022   -2.8216   73.6814 ca      1  CNT         0.000000
   2975 C          16.1101   -2.1209   74.9095 ca      1  CNT         0.000000
   2976 C          16.2336   -0.7088   74.9095 ca      1  CNT         0.000000
   2977 C          16.2491    0.0000   76.1375 ca      1  CNT         0.000000
   2978 C          16.1873    1.4162   76.1375 ca      1  CNT         0.000000
   2979 C          16.1101    2.1209   77.3655 ca      1  CNT         0.000000
   2980 C          15.8639    3.5169   77.3655 ca      1  CNT         0.000000
   2981 C          15.6954    4.2056   76.1375 ca      1  CNT         0.000000
   2982 C          15.2691    5.5575   76.1375 ca      1  CNT         0.000000
   2983 C          15.0122    6.2183   77.3655 ca      1  CNT         0.000000
   2984 C          14.4131    7.5030   77.3655 ca      1  CNT         0.000000
   2985 C          14.0721    8.1245   76.1375 ca      1  CNT         0.000000
   2986 C          13.3105    9.3201   76.1375 ca      1  CNT         0.000000
   2987 C          12.8913    9.8918   77.3655 ca      1  CNT         0.000000
   2988 C          11.9801   10.9777   77.3655 ca      1  CNT         0.000000
   2989 C          11.4898   11.4898   76.1375 ca      1  CNT         0.000000
   2990 C          10.4447   12.4475   76.1375 ca      1  CNT         0.000000
   2991 C           9.8918   12.8913   77.3655 ca      1  CNT         0.000000
   2992 C           8.7306   13.7043   77.3655 ca      1  CNT         0.000000
   2993 C           8.1245   14.0721   76.1375 ca      1  CNT         0.000000
   2994 C           6.8672   14.7267   76.1375 ca      1  CNT         0.000000
   2995 C           6.2183   15.0122   77.3655 ca      1  CNT         0.000000
   2996 C           4.8862   15.4970   77.3655 ca      1  CNT         0.000000
   2997 C           4.2056   15.6954   76.1375 ca      1  CNT         0.000000
   2998 C           2.8216   16.0022   76.1375 ca      1  CNT         0.000000
   2999 C           2.1209   16.1101   77.3655 ca      1  CNT         0.000000
   3000 C           0.7088   16.2336   77.3655 ca      1  CNT         0.000000
   3001 C          -0.0000   16.2491   76.1375 ca      1  CNT         0.000000
   3002 C          -1.4162   16.1873   76.1375 ca      1  CNT         0.000000
   3003 C          -2.1209   16.1101   77.3655 ca      1  CNT         0.000000
   3004 C          -3.5169   15.8639   77.3655 ca      1  CNT         0.000000
   3005 C          -4.2056   15.6954   76.1375 ca      1  CNT         0.000000
   3006 C          -5.5575   15.2691   76.1375 ca      1  CNT         0.000000
   3007 C          -6.2183   15.0122   77.3655 ca      1  CNT         0.000000
   3008 C          -7.5030   14.4131   77.3655 ca      1  CNT         0.000000
   3009 C          -8.1245   14.0721   76.1375 ca      1  CNT         0.000000
   3010 C          -9.3201   13.3105   76.1375 ca      1  CNT         0.000000
   3011 C          -9.8918   12.8913   77.3655 ca      1  CNT         0.000000
   3012 C         -10.9777   11.9801   77.3655 ca      1  CNT         0.000000
   3013 C         -11.4898   11.4898   76.1375 ca      1  CNT         0.000000
   3014 C         -12.4475   10.4447   76.1375 ca      1  CNT         0.000000
   3015 C         -12.8913    9.8918   77.3655 ca      1  CNT         0.000000
   3016 C         -13.7043    8.7306   77.3655 ca      1  CNT         0.000000
   3017 C         -14.0721    8.1245   76.1375 ca      1  CNT         0.000000
   3018 C         -14.7267    6.8672   76.1375 ca      1  CNT         0.000000
   3019 C         -15.0122    6.2183   77.3655 ca      1  CNT         0.000000
   3020 C         -15.4970    4.8862   77.3655 ca      1  CNT         0.000000
   3021 C         -15.6954    4.2056   76.1375 ca      1  CNT         0.000000
   3022 C         -16.0022    2.8216   76.1375 ca      1  CNT         0.000000
   3023 C         -16.1101    2.1209   77.3655 ca      1  CNT         0.000000
   3024 C         -16.2336    0.7088   77.3655 ca      1  CNT         0.000000
   3025 C         -16.2491   -0.0000   76.1375 ca      1  CNT         0.000000
   3026 C         -16.1873   -1.4162   76.1375 ca      1  CNT         0.000000
   3027 C         -16.1101   -2.1209   77.3655 ca      1  CNT         0.000000
   3028 C         -15.8639   -3.5169   77.3655 ca      1  CNT         0.000000
   3029 C         -15.6954   -4.2056   76.1375 ca      1  CNT         0.000000
   3030 C         -15.2691   -5.5575   76.1375 ca      1  CNT         0.000000
   3031 C         -15.0122   -6.2183   77.3655 ca      1  CNT         0.000000
   3032 C         -14.4131   -7.5030   77.3655 ca      1  CNT         0.000000
   3033 C         -14.0721   -8.1245   76.1375 ca      1  CNT         0.000000
   3034 C         -13.3105   -9.3201   76.1375 ca      1  CNT         0.000000
   3035 C         -12.8913   -9.8918   77.3655 ca      1  CNT         0.000000
   3036 C         -11.9801  -10.9777   77.3655 ca      1  CNT         0.000000
   3037 C         -11.4898  -11.4898   76.1375 ca      1  CNT         0.000000
   3038 C         -10.4447  -12.4475   76.1375 ca      1  CNT         0.000000
   3039 C          -9.8918  -12.8913   77.3655 ca      1  CNT         0.000000
   3040 C          -8.7306  -13.7043   77.3655 ca      1  CNT         0.000000
   3041 C          -8.1245  -14.0721   76.1375 ca      1  CNT         0.000000
   3042 C          -6.8672  -14.7267   76.1375 ca      1  CNT         0.000000
   3043 C          -6.2183  -15.0122   77.3655 ca      1  CNT         0.000000
   3044 C          -4.8862  -15.4970   77.3655 ca      1  CNT         0.000000
   3045 C          -4.2056  -15.6954   76.1375 ca      1  CNT         0.000000
   3046 C          -2.8216  -16.0022   76.1375 ca      1  CNT         0.000000
   3047 C          -2.1209  -16.1101   77.3655 ca      1  CNT         0.000000
   3048 C          -0.7088  -16.2336   77.3655 ca      1  CNT         0.000000
   3049 C           0.0000  -16.2491   76.1375 ca      1  CNT         0.000000
   3050 C           1.4162  -16.1873   76.1375 ca      1  CNT         0.000000
   3051 C           2.1209  -16.1101   77.3655 ca      1  CNT         0.000000
   3052 C           3.5169  -15.8639   77.3655 ca      1  CNT         0.000000
   3053 C           4.2056  -15.6954   76.1375 ca      1  CNT         0.000000
   3054 C           5.5575  -15.2691   76.1375 ca      1  CNT         0.000000
   3055 C           6.2183  -15.0122   77.3655 ca      1  CNT         0.000000
   3056 C           7.5030  -14.4131   77.3655 ca      1  CNT         0.000000
   3057 C           8.1245  -14.0721   76.1375 ca      1  CNT         0.000000
   3058 C           9.3201  -13.3105   76.1375 ca      1  CNT         0.000000
   3059 C           9.8918  -12.8913   77.3655 ca      1  CNT         0.000000
   3060 C          10.9777  -11.9801   77.3655 ca      1  CNT         0.000000
   3061 C          11.4898  -11.4898   76.1375 ca      1  CNT         0.000000
   3062 C          12.4475  -10.4447   76.1375 ca      1  CNT         0.000000
   3063 C          12.8913   -9.8918   77.3655 ca      1  CNT         0.000000
   3064 C          13.7043   -8.7306   77.3655 ca      1  CNT         0.000000
   3065 C          14.0721   -8.1245   76.1375 ca      1  CNT         0.000000
   3066 C          14.7267   -6.8672   76.1375 ca      1  CNT         0.000000
   3067 C          15.0122   -6.2183   77.3655 ca      1  CNT         0.000000
   3068 C          15.4970   -4.8862   77.3655 ca      1  CNT         0.000000
   3069 C          15.6954   -4.2056   76.1375 ca      1  CNT         0.000000
   3070 C          16.0022   -2.8216   76.1375 ca      1  CNT         0.000000
   3071 C          16.1101   -2.1209   77.3655 ca      1  CNT         0.000000
   3072 C          16.2336   -0.7088   77.3655 ca      1  CNT         0.000000
   3073 C          16.2491    0.0000   78.5935 ca      1  CNT         0.000000
   3074 C          16.1873    1.4162   78.5935 ca      1  CNT         0.000000
   3075 C          16.1101    2.1209   79.8216 ca      1  CNT         0.000000
   3076 C          15.8639    3.5169   79.8216 ca      1  CNT         0.000000
   3077 C          15.6954    4.2056   78.5935 ca      1  CNT         0.000000
   3078 C          15.2691    5.5575   78.5935 ca      1  CNT         0.000000
   3079 C          15.0122    6.2183   79.8216 ca      1  CNT         0.000000
   3080 C          14.4131    7.5030   79.8216 ca      1  CNT         0.000000
   3081 C          14.0721    8.1245   78.5935 ca      1  CNT         0.000000
   3082 C          13.3105    9.3201   78.5935 ca      1  CNT         0.000000
   3083 C          12.8913    9.8918   79.8216 ca      1  CNT         0.000000
   3084 C          11.9801   10.9777   79.8216 ca      1  CNT         0.000000
   3085 C          11.4898   11.4898   78.5935 ca      1  CNT         0.000000
   3086 C          10.4447   12.4475   78.5935 ca      1  CNT         0.000000
   3087 C           9.8918   12.8913   79.8216 ca      1  CNT         0.000000
   3088 C           8.7306   13.7043   79.8216 ca      1  CNT         0.000000
   3089 C           8.1245   14.0721   78.5935 ca      1  CNT         0.000000
   3090 C           6.8672   14.7267   78.5935 ca      1  CNT         0.000000
   3091 C           6.2183   15.0122   79.8216 ca      1  CNT         0.000000
   3092 C           4.8862   15.4970   79.8216 ca      1  CNT         0.000000
   3093 C           4.2056   15.6954   78.5935 ca      1  CNT         0.000000
   3094 C           2.8216   16.0022   78.5935 ca      1  CNT         0.000000
   3095 C           2.1209   16.1101   79.8216 ca      1  CNT         0.000000
   3096 C           0.7088   16.2336   79.8216 ca      1  CNT         0.000000
   3097 C          -0.0000   16.2491   78.5935 ca      1  CNT         0.000000
   3098 C          -1.4162   16.1873   78.5935 ca      1  CNT         0.000000
   3099 C          -2.1209   16.1101   79.8216 ca      1  CNT         0.000000
   3100 C          -3.5169   15.8639   79.8216 ca      1  CNT         0.000000
   3101 C          -4.2056   15.6954   78.5935 ca      1  CNT         0.000000
   3102 C          -5.5575   15.2691   78.5935 ca      1  CNT         0.000000
   3103 C          -6.2183   15.0122   79.8216 ca      1  CNT         0.000000
   3104 C          -7.5030   14.4131   79.8216 ca      1  CNT         0.000000
   3105 C          -8.1245   14.0721   78.5935 ca      1  CNT         0.000000
   3106 C          -9.3201   13.3105   78.5935 ca      1  CNT         0.000000
   3107 C          -9.8918   12.8913   79.8216 ca      1  CNT         0.000000
   3108 C         -10.9777   11.9801   79.8216 ca      1  CNT         0.000000
   3109 C         -11.4898   11.4898   78.5935 ca      1  CNT         0.000000
   3110 C         -12.4475   10.4447   78.5935 ca      1  CNT         0.000000
   3111 C         -12.8913    9.8918   79.8216 ca      1  CNT         0.000000
   3112 C         -13.7043    8.7306   79.8216 ca      1  CNT         0.000000
   3113 C         -14.0721    8.1245   78.5935 ca      1  CNT         0.000000
   3114 C         -14.7267    6.8672   78.5935 ca      1  CNT         0.000000
   3115 C         -15.0122    6.2183   79.8216 ca      1  CNT         0.000000
   3116 C         -15.4970    4.8862   79.8216 ca      1  CNT         0.000000
   3117 C         -15.6954    4.2056   78.5935 ca      1  CNT         0.000000
   3118 C         -16.0022    2.8216   78.5935 ca      1  CNT         0.000000
   3119 C         -16.1101    2.1209   79.8216 ca      1  CNT         0.000000
   3120 C         -16.2336    0.7088   79.8216 ca      1  CNT         0.000000
   3121 C         -16.2491   -0.0000   78.5935 ca      1  CNT         0.000000
   3122 C         -16.1873   -1.4162   78.5935 ca      1  CNT         0.000000
   3123 C         -16.1101   -2.1209   79.8216 ca      1  CNT         0.000000
   3124 C         -15.8639   -3.5169   79.8216 ca      1  CNT         0.000000
   3125 C         -15.6954   -4.2056   78.5935 ca      1  CNT         0.000000
   3126 C         -15.2691   -5.5575   78.5935 ca      1  CNT         0.000000
   3127 C         -15.0122   -6.2183   79.8216 ca      1  CNT         0.000000
   3128 C         -14.4131   -7.5030   79.8216 ca      1  CNT         0.000000
   3129 C         -14.0721   -8.1245   78.5935 ca      1  CNT         0.000000
   3130 C         -13.3105   -9.3201   78.5935 ca      1  CNT         0.000000
   3131 C         -12.8913   -9.8918   79.8216 ca      1  CNT         0.000000
   3132 C         -11.9801  -10.9777   79.8216 ca      1  CNT         0.000000
   3133 C         -11.4898  -11.4898   78.5935 ca      1  CNT         0.000000
   3134 C         -10.4447  -12.4475   78.5935 ca      1  CNT         0.000000
   3135 C          -9.8918  -12.8913   79.8216 ca      1  CNT         0.000000
   3136 C          -8.7306  -13.7043   79.8216 ca      1  CNT         0.000000
   3137 C          -8.1245  -14.0721   78.5935 ca      1  CNT         0.000000
   3138 C          -6.8672  -14.7267   78.5935 ca      1  CNT         0.000000
   3139 C          -6.2183  -15.0122   79.8216 ca      1  CNT         0.000000
   3140 C          -4.8862  -15.4970   79.8216 ca      1  CNT         0.000000
   3141 C          -4.2056  -15.6954   78.5935 ca      1  CNT         0.000000
   3142 C          -2.8216  -16.0022   78.5935 ca      1  CNT         0.000000
   3143 C          -2.1209  -16.1101   79.8216 ca      1  CNT         0.000000
   3144 C          -0.7088  -16.2336   79.8216 ca      1  CNT         0.000000
   3145 C           0.0000  -16.2491   78.5935 ca      1  CNT         0.000000
   3146 C           1.4162  -16.1873   78.5935 ca      1  CNT         0.000000
   3147 C           2.1209  -16.1101   79.8216 ca      1  CNT         0.000000
   3148 C           3.5169  -15.8639   79.8216 ca      1  CNT         0.000000
   3149 C           4.2056  -15.6954   78.5935 ca      1  CNT         0.000000
   3150 C           5.5575  -15.2691   78.5935 ca      1  CNT         0.000000
   3151 C           6.2183  -15.0122   79.8216 ca      1  CNT         0.000000
   3152 C           7.5030  -14.4131   79.8216 ca      1  CNT         0.000000
   3153 C           8.1245  -14.0721   78.5935 ca      1  CNT         0.000000
   3154 C           9.3201  -13.3105   78.5935 ca      1  CNT         0.000000
   3155 C           9.8918  -12.8913   79.8216 ca      1  CNT         0.000000
   3156 C          10.9777  -11.9801   79.8216 ca      1  CNT         0.000000
   3157 C          11.4898  -11.4898   78.5935 ca      1  CNT         0.000000
   3158 C          12.4475  -10.4447   78.5935 ca      1  CNT         0.000000
   3159 C          12.8913   -9.8918   79.8216 ca      1  CNT         0.000000
   3160 C          13.7043   -8.7306   79.8216 ca      1  CNT         0.000000
   3161 C          14.0721   -8.1245   78.5935 ca      1  CNT         0.000000
   3162 C          14.7267   -6.8672   78.5935 ca      1  CNT         0.000000
   3163 C          15.0122   -6.2183   79.8216 ca      1  CNT         0.000000
   3164 C          15.4970   -4.8862   79.8216 ca      1  CNT         0.000000
   3165 C          15.6954   -4.2056   78.5935 ca      1  CNT         0.000000
   3166 C          16.0022   -2.8216   78.5935 ca      1  CNT         0.000000
   3167 C          16.1101   -2.1209   79.8216 ca      1  CNT         0.000000
   3168 C          16.2336   -0.7088   79.8216 ca      1  CNT         0.000000
   3169 C          16.2491    0.0000   81.0496 ca      1  CNT         0.000000
   3170 C          16.1873    1.4162   81.0496 ca      1  CNT         0.000000
   3171 C          16.1101    2.1209   82.2776 ca      1  CNT         0.000000
   3172 C          15.8639    3.5169   82.2776 ca      1  CNT         0.000000
   3173 C          15.6954    4.2056   81.0496 ca      1  CNT         0.000000
   3174 C          15.2691    5.5575   81.0496 ca      1  CNT         0.000000
   3175 C          15.0122    6.2183   82.2776 ca      1  CNT         0.000000
   3176 C          14.4131    7.5030   82.2776 ca      1  CNT         0.000000
   3177 C          14.0721    8.1245   81.0496 ca      1  CNT         0.000000
   3178 C          13.3105    9.3201   81.0496 ca      1  CNT         0.000000
   3179 C          12.8913    9.8918   82.2776 ca      1  CNT         0.000000
   3180 C          11.9801   10.9777   82.2776 ca      1  CNT         0.000000
   3181 C          11.4898   11.4898   81.0496 ca      1  CNT         0.000000
   3182 C          10.4447   12.4475   81.0496 ca      1  CNT         0.000000
   3183 C           9.8918   12.8913   82.2776 ca      1  CNT         0.000000
   3184 C           8.7306   13.7043   82.2776 ca      1  CNT         0.000000
   3185 C           8.1245   14.0721   81.0496 ca      1  CNT         0.000000
   3186 C           6.8672   14.7267   81.0496 ca      1  CNT         0.000000
   3187 C           6.2183   15.0122   82.2776 ca      1  CNT         0.000000
   3188 C           4.8862   15.4970   82.2776 ca      1  CNT         0.000000
   3189 C           4.2056   15.6954   81.0496 ca      1  CNT         0.000000
   3190 C           2.8216   16.0022   81.0496 ca      1  CNT         0.000000
   3191 C           2.1209   16.1101   82.2776 ca      1  CNT         0.000000
   3192 C           0.7088   16.2336   82.2776 ca      1  CNT         0.000000
   3193 C          -0.0000   16.2491   81.0496 ca      1  CNT         0.000000
   3194 C          -1.4162   16.1873   81.0496 ca      1  CNT         0.000000
   3195 C          -2.1209   16.1101   82.2776 ca      1  CNT         0.000000
   3196 C          -3.5169   15.8639   82.2776 ca      1  CNT         0.000000
   3197 C          -4.2056   15.6954   81.0496 ca      1  CNT         0.000000
   3198 C          -5.5575   15.2691   81.0496 ca      1  CNT         0.000000
   3199 C          -6.2183   15.0122   82.2776 ca      1  CNT         0.000000
   3200 C          -7.5030   14.4131   82.2776 ca      1  CNT         0.000000
   3201 C          -8.1245   14.0721   81.0496 ca      1  CNT         0.000000
   3202 C          -9.3201   13.3105   81.0496 ca      1  CNT         0.000000
   3203 C          -9.8918   12.8913   82.2776 ca      1  CNT         0.000000
   3204 C         -10.9777   11.9801   82.2776 ca      1  CNT         0.000000
   3205 C         -11.4898   11.4898   81.0496 ca      1  CNT         0.000000
   3206 C         -12.4475   10.4447   81.0496 ca      1  CNT         0.000000
   3207 C         -12.8913    9.8918   82.2776 ca      1  CNT         0.000000
   3208 C         -13.7043    8.7306   82.2776 ca      1  CNT         0.000000
   3209 C         -14.0721    8.1245   81.0496 ca      1  CNT         0.000000
   3210 C         -14.7267    6.8672   81.0496 ca      1  CNT         0.000000
   3211 C         -15.0122    6.2183   82.2776 ca      1  CNT         0.000000
   3212 C         -15.4970    4.8862   82.2776 ca      1  CNT         0.000000
   3213 C         -15.6954    4.2056   81.0496 ca      1  CNT         0.000000
   3214 C         -16.0022    2.8216   81.0496 ca      1  CNT         0.000000
   3215 C         -16.1101    2.1209   82.2776 ca      1  CNT         0.000000
   3216 C         -16.2336    0.7088   82.2776 ca      1  CNT         0.000000
   3217 C         -16.2491   -0.0000   81.0496 ca      1  CNT         0.000000
   3218 C         -16.1873   -1.4162   81.0496 ca      1  CNT         0.000000
   3219 C         -16.1101   -2.1209   82.2776 ca      1  CNT         0.000000
   3220 C         -15.8639   -3.5169   82.2776 ca      1  CNT         0.000000
   3221 C         -15.6954   -4.2056   81.0496 ca      1  CNT         0.000000
   3222 C         -15.2691   -5.5575   81.0496 ca      1  CNT         0.000000
   3223 C         -15.0122   -6.2183   82.2776 ca      1  CNT         0.000000
   3224 C         -14.4131   -7.5030   82.2776 ca      1  CNT         0.000000
   3225 C         -14.0721   -8.1245   81.0496 ca      1  CNT         0.000000
   3226 C         -13.3105   -9.3201   81.0496 ca      1  CNT         0.000000
   3227 C         -12.8913   -9.8918   82.2776 ca      1  CNT         0.000000
   3228 C         -11.9801  -10.9777   82.2776 ca      1  CNT         0.000000
   3229 C         -11.4898  -11.4898   81.0496 ca      1  CNT         0.000000
   3230 C         -10.4447  -12.4475   81.0496 ca      1  CNT         0.000000
   3231 C          -9.8918  -12.8913   82.2776 ca      1  CNT         0.000000
   3232 C          -8.7306  -13.7043   82.2776 ca      1  CNT         0.000000
   3233 C          -8.1245  -14.0721   81.0496 ca      1  CNT         0.000000
   3234 C          -6.8672  -14.7267   81.0496 ca      1  CNT         0.000000
   3235 C          -6.2183  -15.0122   82.2776 ca      1  CNT         0.000000
   3236 C          -4.8862  -15.4970   82.2776 ca      1  CNT         0.000000
   3237 C          -4.2056  -15.6954   81.0496 ca      1  CNT         0.000000
   3238 C          -2.8216  -16.0022   81.0496 ca      1  CNT         0.000000
   3239 C          -2.1209  -16.1101   82.2776 ca      1  CNT         0.000000
   3240 C          -0.7088  -16.2336   82.2776 ca      1  CNT         0.000000
   3241 C           0.0000  -16.2491   81.0496 ca      1  CNT         0.000000
   3242 C           1.4162  -16.1873   81.0496 ca      1  CNT         0.000000
   3243 C           2.1209  -16.1101   82.2776 ca      1  CNT         0.000000
   3244 C           3.5169  -15.8639   82.2776 ca      1  CNT         0.000000
   3245 C           4.2056  -15.6954   81.0496 ca      1  CNT         0.000000
   3246 C           5.5575  -15.2691   81.0496 ca      1  CNT         0.000000
   3247 C           6.2183  -15.0122   82.2776 ca      1  CNT         0.000000
   3248 C           7.5030  -14.4131   82.2776 ca      1  CNT         0.000000
   3249 C           8.1245  -14.0721   81.0496 ca      1  CNT         0.000000
   3250 C           9.3201  -13.3105   81.0496 ca      1  CNT         0.000000
   3251 C           9.8918  -12.8913   82.2776 ca      1  CNT         0.000000
   3252 C          10.9777  -11.9801   82.2776 ca      1  CNT         0.000000
   3253 C          11.4898  -11.4898   81.0496 ca      1  CNT         0.000000
   3254 C          12.4475  -10.4447   81.0496 ca      1  CNT         0.000000
   3255 C          12.8913   -9.8918   82.2776 ca      1  CNT         0.000000
   3256 C          13.7043   -8.7306   82.2776 ca      1  CNT         0.000000
   3257 C          14.0721   -8.1245   81.0496 ca      1  CNT         0.000000
   3258 C          14.7267   -6.8672   81.0496 ca      1  CNT         0.000000
   3259 C          15.0122   -6.2183   82.2776 ca      1  CNT         0.000000
   3260 C          15.4970   -4.8862   82.2776 ca      1  CNT         0.000000
   3261 C          15.6954   -4.2056   81.0496 ca      1  CNT         0.000000
   3262 C          16.0022   -2.8216   81.0496 ca      1  CNT         0.000000
   3263 C          16.1101   -2.1209   82.2776 ca      1  CNT         0.000000
   3264 C          16.2336   -0.7088   82.2776 ca      1  CNT         0.000000
   3265 C          16.2491    0.0000   83.5056 ca      1  CNT         0.000000
   3266 C          16.1873    1.4162   83.5056 ca      1  CNT         0.000000
   3267 C          16.1101    2.1209   84.7337 ca      1  CNT         0.000000
   3268 C          15.8639    3.5169   84.7337 ca      1  CNT         0.000000
   3269 C          15.6954    4.2056   83.5056 ca      1  CNT         0.000000
   3270 C          15.2691    5.5575   83.5056 ca      1  CNT         0.000000
   3271 C          15.0122    6.2183   84.7337 ca      1  CNT         0.000000
   3272 C          14.4131    7.5030   84.7337 ca      1  CNT         0.000000
   3273 C          14.0721    8.1245   83.5056 ca      1  CNT         0.000000
   3274 C          13.3105    9.3201   83.5056 ca      1  CNT         0.000000
   3275 C          12.8913    9.8918   84.7337 ca      1  CNT         0.000000
   3276 C          11.9801   10.9777   84.7337 ca      1  CNT         0.000000
   3277 C          11.4898   11.4898   83.5056 ca      1  CNT         0.000000
   3278 C          10.4447   12.4475   83.5056 ca      1  CNT         0.000000
   3279 C           9.8918   12.8913   84.7337 ca      1  CNT         0.000000
   3280 C           8.7306   13.7043   84.7337 ca      1  CNT         0.000000
   3281 C           8.1245   14.0721   83.5056 ca      1  CNT         0.000000
   3282 C           6.8672   14.7267   83.5056 ca      1  CNT         0.000000
   3283 C           6.2183   15.0122   84.7337 ca      1  CNT         0.000000
   3284 C           4.8862   15.4970   84.7337 ca      1  CNT         0.000000
   3285 C           4.2056   15.6954   83.5056 ca      1  CNT         0.000000
   3286 C           2.8216   16.0022   83.5056 ca      1  CNT         0.000000
   3287 C           2.1209   16.1101   84.7337 ca      1  CNT         0.000000
   3288 C           0.7088   16.2336   84.7337 ca      1  CNT         0.000000
   3289 C          -0.0000   16.2491   83.5056 ca      1  CNT         0.000000
   3290 C          -1.4162   16.1873   83.5056 ca      1  CNT         0.000000
   3291 C          -2.1209   16.1101   84.7337 ca      1  CNT         0.000000
   3292 C          -3.5169   15.8639   84.7337 ca      1  CNT         0.000000
   3293 C          -4.2056   15.6954   83.5056 ca      1  CNT         0.000000
   3294 C          -5.5575   15.2691   83.5056 ca      1  CNT         0.000000
   3295 C          -6.2183   15.0122   84.7337 ca      1  CNT         0.000000
   3296 C          -7.5030   14.4131   84.7337 ca      1  CNT         0.000000
   3297 C          -8.1245   14.0721   83.5056 ca      1  CNT         0.000000
   3298 C          -9.3201   13.3105   83.5056 ca      1  CNT         0.000000
   3299 C          -9.8918   12.8913   84.7337 ca      1  CNT         0.000000
   3300 C         -10.9777   11.9801   84.7337 ca      1  CNT         0.000000
   3301 C         -11.4898   11.4898   83.5056 ca      1  CNT         0.000000
   3302 C         -12.4475   10.4447   83.5056 ca      1  CNT         0.000000
   3303 C         -12.8913    9.8918   84.7337 ca      1  CNT         0.000000
   3304 C         -13.7043    8.7306   84.7337 ca      1  CNT         0.000000
   3305 C         -14.0721    8.1245   83.5056 ca      1  CNT         0.000000
   3306 C         -14.7267    6.8672   83.5056 ca      1  CNT         0.000000
   3307 C         -15.0122    6.2183   84.7337 ca      1  CNT         0.000000
   3308 C         -15.4970    4.8862   84.7337 ca      1  CNT         0.000000
   3309 C         -15.6954    4.2056   83.5056 ca      1  CNT         0.000000
   3310 C         -16.0022    2.8216   83.5056 ca      1  CNT         0.000000
   3311 C         -16.1101    2.1209   84.7337 ca      1  CNT         0.000000
   3312 C         -16.2336    0.7088   84.7337 ca      1  CNT         0.000000
   3313 C         -16.2491   -0.0000   83.5056 ca      1  CNT         0.000000
   3314 C         -16.1873   -1.4162   83.5056 ca      1  CNT         0.000000
   3315 C         -16.1101   -2.1209   84.7337 ca      1  CNT         0.000000
   3316 C         -15.8639   -3.5169   84.7337 ca      1  CNT         0.000000
   3317 C         -15.6954   -4.2056   83.5056 ca      1  CNT         0.000000
   3318 C         -15.2691   -5.5575   83.5056 ca      1  CNT         0.000000
   3319 C         -15.0122   -6.2183   84.7337 ca      1  CNT         0.000000
   3320 C         -14.4131   -7.5030   84.7337 ca      1  CNT         0.000000
   3321 C         -14.0721   -8.1245   83.5056 ca      1  CNT         0.000000
   3322 C         -13.3105   -9.3201   83.5056 ca      1  CNT         0.000000
   3323 C         -12.8913   -9.8918   84.7337 ca      1  CNT         0.000000
   3324 C         -11.9801  -10.9777   84.7337 ca      1  CNT         0.000000
   3325 C         -11.4898  -11.4898   83.5056 ca      1  CNT         0.000000
   3326 C         -10.4447  -12.4475   83.5056 ca      1  CNT         0.000000
   3327 C          -9.8918  -12.8913   84.7337 ca      1  CNT         0.000000
   3328 C          -8.7306  -13.7043   84.7337 ca      1  CNT         0.000000
   3329 C          -8.1245  -14.0721   83.5056 ca      1  CNT         0.000000
   3330 C          -6.8672  -14.7267   83.5056 ca      1  CNT         0.000000
   3331 C          -6.2183  -15.0122   84.7337 ca      1  CNT         0.000000
   3332 C          -4.8862  -15.4970   84.7337 ca      1  CNT         0.000000
   3333 C          -4.2056  -15.6954   83.5056 ca      1  CNT         0.000000
   3334 C          -2.8216  -16.0022   83.5056 ca      1  CNT         0.000000
   3335 C          -2.1209  -16.1101   84.7337 ca      1  CNT         0.000000
   3336 C          -0.7088  -16.2336   84.7337 ca      1  CNT         0.000000
   3337 C           0.0000  -16.2491   83.5056 ca      1  CNT         0.000000
   3338 C           1.4162  -16.1873   83.5056 ca      1  CNT         0.000000
   3339 C           2.1209  -16.1101   84.7337 ca      1  CNT         0.000000
   3340 C           3.5169  -15.8639   84.7337 ca      1  CNT         0.000000
   3341 C           4.2056  -15.6954   83.5056 ca      1  CNT         0.000000
   3342 C           5.5575  -15.2691   83.5056 ca      1  CNT         0.000000
   3343 C           6.2183  -15.0122   84.7337 ca      1  CNT         0.000000
   3344 C           7.5030  -14.4131   84.7337 ca      1  CNT         0.000000
   3345 C           8.1245  -14.0721   83.5056 ca      1  CNT         0.000000
   3346 C           9.3201  -13.3105   83.5056 ca      1  CNT         0.000000
   3347 C           9.8918  -12.8913   84.7337 ca      1  CNT         0.000000
   3348 C          10.9777  -11.9801   84.7337 ca      1  CNT         0.000000
   3349 C          11.4898  -11.4898   83.5056 ca      1  CNT         0.000000
   3350 C          12.4475  -10.4447   83.5056 ca      1  CNT         0.000000
   3351 C          12.8913   -9.8918   84.7337 ca      1  CNT         0.000000
   3352 C          13.7043   -8.7306   84.7337 ca      1  CNT         0.000000
   3353 C          14.0721   -8.1245   83.5056 ca      1  CNT         0.000000
   3354 C          14.7267   -6.8672   83.5056 ca      1  CNT         0.000000
   3355 C          15.0122   -6.2183   84.7337 ca      1  CNT         0.000000
   3356 C          15.4970   -4.8862   84.7337 ca      1  CNT         0.000000
   3357 C          15.6954   -4.2056   83.5056 ca      1  CNT         0.000000
   3358 C          16.0022   -2.8216   83.5056 ca      1  CNT         0.000000
   3359 C          16.1101   -2.1209   84.7337 ca      1  CNT         0.000000
   3360 C          16.2336   -0.7088   84.7337 ca      1  CNT         0.000000
   3361 C          16.2491    0.0000   85.9617 ca      1  CNT         0.000000
   3362 C          16.1873    1.4162   85.9617 ca      1  CNT         0.000000
   3363 C          16.1101    2.1209   87.1897 ca      1  CNT         0.000000
   3364 C          15.8639    3.5169   87.1897 ca      1  CNT         0.000000
   3365 C          15.6954    4.2056   85.9617 ca      1  CNT         0.000000
   3366 C          15.2691    5.5575   85.9617 ca      1  CNT         0.000000
   3367 C          15.0122    6.2183   87.1897 ca      1  CNT         0.000000
   3368 C          14.4131    7.5030   87.1897 ca      1  CNT         0.000000
   3369 C          14.0721    8.1245   85.9617 ca      1  CNT         0.000000
   3370 C          13.3105    9.3201   85.9617 ca      1  CNT         0.000000
   3371 C          12.8913    9.8918   87.1897 ca      1  CNT         0.000000
   3372 C          11.9801   10.9777   87.1897 ca      1  CNT         0.000000
   3373 C          11.4898   11.4898   85.9617 ca      1  CNT         0.000000
   3374 C          10.4447   12.4475   85.9617 ca      1  CNT         0.000000
   3375 C           9.8918   12.8913   87.1897 ca      1  CNT         0.000000
   3376 C           8.7306   13.7043   87.1897 ca      1  CNT         0.000000
   3377 C           8.1245   14.0721   85.9617 ca      1  CNT         0.000000
   3378 C           6.8672   14.7267   85.9617 ca      1  CNT         0.000000
   3379 C           6.2183   15.0122   87.1897 ca      1  CNT         0.000000
   3380 C           4.8862   15.4970   87.1897 ca      1  CNT         0.000000
   3381 C           4.2056   15.6954   85.9617 ca      1  CNT         0.000000
   3382 C           2.8216   16.0022   85.9617 ca      1  CNT         0.000000
   3383 C           2.1209   16.1101   87.1897 ca      1  CNT         0.000000
   3384 C           0.7088   16.2336   87.1897 ca      1  CNT         0.000000
   3385 C          -0.0000   16.2491   85.9617 ca      1  CNT         0.000000
   3386 C          -1.4162   16.1873   85.9617 ca      1  CNT         0.000000
   3387 C          -2.1209   16.1101   87.1897 ca      1  CNT         0.000000
   3388 C          -3.5169   15.8639   87.1897 ca      1  CNT         0.000000
   3389 C          -4.2056   15.6954   85.9617 ca      1  CNT         0.000000
   3390 C          -5.5575   15.2691   85.9617 ca      1  CNT         0.000000
   3391 C          -6.2183   15.0122   87.1897 ca      1  CNT         0.000000
   3392 C          -7.5030   14.4131   87.1897 ca      1  CNT         0.000000
   3393 C          -8.1245   14.0721   85.9617 ca      1  CNT         0.000000
   3394 C          -9.3201   13.3105   85.9617 ca      1  CNT         0.000000
   3395 C          -9.8918   12.8913   87.1897 ca      1  CNT         0.000000
   3396 C         -10.9777   11.9801   87.1897 ca      1  CNT         0.000000
   3397 C         -11.4898   11.4898   85.9617 ca      1  CNT         0.000000
   3398 C         -12.4475   10.4447   85.9617 ca      1  CNT         0.000000
   3399 C         -12.8913    9.8918   87.1897 ca      1  CNT         0.000000
   3400 C         -13.7043    8.7306   87.1897 ca      1  CNT         0.000000
   3401 C         -14.0721    8.1245   85.9617 ca      1  CNT         0.000000
   3402 C         -14.7267    6.8672   85.9617 ca      1  CNT         0.000000
   3403 C         -15.0122    6.2183   87.1897 ca      1  CNT         0.000000
   3404 C         -15.4970    4.8862   87.1897 ca      1  CNT         0.000000
   3405 C         -15.6954    4.2056   85.9617 ca      1  CNT         0.000000
   3406 C         -16.0022    2.8216   85.9617 ca      1  CNT         0.000000
   3407 C         -16.1101    2.1209   87.1897 ca      1  CNT         0.000000
   3408 C         -16.2336    0.7088   87.1897 ca      1  CNT         0.000000
   3409 C         -16.2491   -0.0000   85.9617 ca      1  CNT         0.000000
   3410 C         -16.1873   -1.4162   85.9617 ca      1  CNT         0.000000
   3411 C         -16.1101   -2.1209   87.1897 ca      1  CNT         0.000000
   3412 C         -15.8639   -3.5169   87.1897 ca      1  CNT         0.000000
   3413 C         -15.6954   -4.2056   85.9617 ca      1  CNT         0.000000
   3414 C         -15.2691   -5.5575   85.9617 ca      1  CNT         0.000000
   3415 C         -15.0122   -6.2183   87.1897 ca      1  CNT         0.000000
   3416 C         -14.4131   -7.5030   87.1897 ca      1  CNT         0.000000
   3417 C         -14.0721   -8.1245   85.9617 ca      1  CNT         0.000000
   3418 C         -13.3105   -9.3201   85.9617 ca      1  CNT         0.000000
   3419 C         -12.8913   -9.8918   87.1897 ca      1  CNT         0.000000
   3420 C         -11.9801  -10.9777   87.1897 ca      1  CNT         0.000000
   3421 C         -11.4898  -11.4898   85.9617 ca      1  CNT         0.000000
   3422 C         -10.4447  -12.4475   85.9617 ca      1  CNT         0.000000
   3423 C          -9.8918  -12.8913   87.1897 ca      1  CNT         0.000000
   3424 C          -8.7306  -13.7043   87.1897 ca      1  CNT         0.000000
   3425 C          -8.1245  -14.0721   85.9617 ca      1  CNT         0.000000
   3426 C          -6.8672  -14.7267   85.9617 ca      1  CNT         0.000000
   3427 C          -6.2183  -15.0122   87.1897 ca      1  CNT         0.000000
   3428 C          -4.8862  -15.4970   87.1897 ca      1  CNT         0.000000
   3429 C          -4.2056  -15.6954   85.9617 ca      1  CNT         0.000000
   3430 C          -2.8216  -16.0022   85.9617 ca      1  CNT         0.000000
   3431 C          -2.1209  -16.1101   87.1897 ca      1  CNT         0.000000
   3432 C          -0.7088  -16.2336   87.1897 ca      1  CNT         0.000000
   3433 C           0.0000  -16.2491   85.9617 ca      1  CNT         0.000000
   3434 C           1.4162  -16.1873   85.9617 ca      1  CNT         0.000000
   3435 C           2.1209  -16.1101   87.1897 ca      1  CNT         0.000000
   3436 C           3.5169  -15.8639   87.1897 ca      1  CNT         0.000000
   3437 C           4.2056  -15.6954   85.9617 ca      1  CNT         0.000000
   3438 C           5.5575  -15.2691   85.9617 ca      1  CNT         0.000000
   3439 C           6.2183  -15.0122   87.1897 ca      1  CNT         0.000000
   3440 C           7.5030  -14.4131   87.1897 ca      1  CNT         0.000000
   3441 C           8.1245  -14.0721   85.9617 ca      1  CNT         0.000000
   3442 C           9.3201  -13.3105   85.9617 ca      1  CNT         0.000000
   3443 C           9.8918  -12.8913   87.1897 ca      1  CNT         0.000000
   3444 C          10.9777  -11.9801   87.1897 ca      1  CNT         0.000000
   3445 C          11.4898  -11.4898   85.9617 ca      1  CNT         0.000000
   3446 C          12.4475  -10.4447   85.9617 ca      1  CNT         0.000000
   3447 C          12.8913   -9.8918   87.1897 ca      1  CNT         0.000000
   3448 C          13.7043   -8.7306   87.1897 ca      1  CNT         0.000000
   3449 C          14.0721   -8.1245   85.9617 ca      1  CNT         0.000000
   3450 C          14.7267   -6.8672   85.9617 ca      1  CNT         0.000000
   3451 C          15.0122   -6.2183   87.1897 ca      1  CNT         0.000000
   3452 C          15.4970   -4.8862   87.1897 ca      1  CNT         0.000000
   3453 C          15.6954   -4.2056   85.9617 ca      1  CNT         0.000000
   3454 C          16.0022   -2.8216   85.9617 ca      1  CNT         0.000000
   3455 C          16.1101   -2.1209   87.1897 ca      1  CNT         0.000000
   3456 C          16.2336   -0.7088   87.1897 ca      1  CNT         0.000000
   3457 C          16.2491    0.0000   88.4177 ca      1  CNT         0.000000
   3458 C          16.1873    1.4162   88.4177 ca      1  CNT         0.000000
   3459 C          16.1101    2.1209   89.6458 ca      1  CNT         0.000000
   3460 C          15.8639    3.5169   89.6458 ca      1  CNT         0.000000
   3461 C          15.6954    4.2056   88.4177 ca      1  CNT         0.000000
   3462 C          15.2691    5.5575   88.4177 ca      1  CNT         0.000000
   3463 C          15.0122    6.2183   89.6458 ca      1  CNT         0.000000
   3464 C          14.4131    7.5030   89.6458 ca      1  CNT         0.000000
   3465 C          14.0721    8.1245   88.4177 ca      1  CNT         0.000000
   3466 C          13.3105    9.3201   88.4177 ca      1  CNT         0.000000
   3467 C          12.8913    9.8918   89.6458 ca      1  CNT         0.000000
   3468 C          11.9801   10.9777   89.6458 ca      1  CNT         0.000000
   3469 C          11.4898   11.4898   88.4177 ca      1  CNT         0.000000
   3470 C          10.4447   12.4475   88.4177 ca      1  CNT         0.000000
   3471 C           9.8918   12.8913   89.6458 ca      1  CNT         0.000000
   3472 C           8.7306   13.7043   89.6458 ca      1  CNT         0.000000
   3473 C           8.1245   14.0721   88.4177 ca      1  CNT         0.000000
   3474 C           6.8672   14.7267   88.4177 ca      1  CNT         0.000000
   3475 C           6.2183   15.0122   89.6458 ca      1  CNT         0.000000
   3476 C           4.8862   15.4970   89.6458 ca      1  CNT         0.000000
   3477 C           4.2056   15.6954   88.4177 ca      1  CNT         0.000000
   3478 C           2.8216   16.0022   88.4177 ca      1  CNT         0.000000
   3479 C           2.1209   16.1101   89.6458 ca      1  CNT         0.000000
   3480 C           0.7088   16.2336   89.6458 ca      1  CNT         0.000000
   3481 C          -0.0000   16.2491   88.4177 ca      1  CNT         0.000000
   3482 C          -1.4162   16.1873   88.4177 ca      1  CNT         0.000000
   3483 C          -2.1209   16.1101   89.6458 ca      1  CNT         0.000000
   3484 C          -3.5169   15.8639   89.6458 ca      1  CNT         0.000000
   3485 C          -4.2056   15.6954   88.4177 ca      1  CNT         0.000000
   3486 C          -5.5575   15.2691   88.4177 ca      1  CNT         0.000000
   3487 C          -6.2183   15.0122   89.6458 ca      1  CNT         0.000000
   3488 C          -7.5030   14.4131   89.6458 ca      1  CNT         0.000000
   3489 C          -8.1245   14.0721   88.4177 ca      1  CNT         0.000000
   3490 C          -9.3201   13.3105   88.4177 ca      1  CNT         0.000000
   3491 C          -9.8918   12.8913   89.6458 ca      1  CNT         0.000000
   3492 C         -10.9777   11.9801   89.6458 ca      1  CNT         0.000000
   3493 C         -11.4898   11.4898   88.4177 ca      1  CNT         0.000000
   3494 C         -12.4475   10.4447   88.4177 ca      1  CNT         0.000000
   3495 C         -12.8913    9.8918   89.6458 ca      1  CNT         0.000000
   3496 C         -13.7043    8.7306   89.6458 ca      1  CNT         0.000000
   3497 C         -14.0721    8.1245   88.4177 ca      1  CNT         0.000000
   3498 C         -14.7267    6.8672   88.4177 ca      1  CNT         0.000000
   3499 C         -15.0122    6.2183   89.6458 ca      1  CNT         0.000000
   3500 C         -15.4970    4.8862   89.6458 ca      1  CNT         0.000000
   3501 C         -15.6954    4.2056   88.4177 ca      1  CNT         0.000000
   3502 C         -16.0022    2.8216   88.4177 ca      1  CNT         0.000000
   3503 C         -16.1101    2.1209   89.6458 ca      1  CNT         0.000000
   3504 C         -16.2336    0.7088   89.6458 ca      1  CNT         0.000000
   3505 C         -16.2491   -0.0000   88.4177 ca      1  CNT         0.000000
   3506 C         -16.1873   -1.4162   88.4177 ca      1  CNT         0.000000
   3507 C         -16.1101   -2.1209   89.6458 ca      1  CNT         0.000000
   3508 C         -15.8639   -3.5169   89.6458 ca      1  CNT         0.000000
   3509 C         -15.6954   -4.2056   88.4177 ca      1  CNT         0.000000
   3510 C         -15.2691   -5.5575   88.4177 ca      1  CNT         0.000000
   3511 C         -15.0122   -6.2183   89.6458 ca      1  CNT         0.000000
   3512 C         -14.4131   -7.5030   89.6458 ca      1  CNT         0.000000
   3513 C         -14.0721   -8.1245   88.4177 ca      1  CNT         0.000000
   3514 C         -13.3105   -9.3201   88.4177 ca      1  CNT         0.000000
   3515 C         -12.8913   -9.8918   89.6458 ca      1  CNT         0.000000
   3516 C         -11.9801  -10.9777   89.6458 ca      1  CNT         0.000000
   3517 C         -11.4898  -11.4898   88.4177 ca      1  CNT         0.000000
   3518 C         -10.4447  -12.4475   88.4177 ca      1  CNT         0.000000
   3519 C          -9.8918  -12.8913   89.6458 ca      1  CNT         0.000000
   3520 C          -8.7306  -13.7043   89.6458 ca      1  CNT         0.000000
   3521 C          -8.1245  -14.0721   88.4177 ca      1  CNT         0.000000
   3522 C          -6.8672  -14.7267   88.4177 ca      1  CNT         0.000000
   3523 C          -6.2183  -15.0122   89.6458 ca      1  CNT         0.000000
   3524 C          -4.8862  -15.4970   89.6458 ca      1  CNT         0.000000
   3525 C          -4.2056  -15.6954   88.4177 ca      1  CNT         0.000000
   3526 C          -2.8216  -16.0022   88.4177 ca      1  CNT         0.000000
   3527 C          -2.1209  -16.1101   89.6458 ca      1  CNT         0.000000
   3528 C          -0.7088  -16.2336   89.6458 ca      1  CNT         0.000000
   3529 C           0.0000  -16.2491   88.4177 ca      1  CNT         0.000000
   3530 C           1.4162  -16.1873   88.4177 ca      1  CNT         0.000000
   3531 C           2.1209  -16.1101   89.6458 ca      1  CNT         0.000000
   3532 C           3.5169  -15.8639   89.6458 ca      1  CNT         0.000000
   3533 C           4.2056  -15.6954   88.4177 ca      1  CNT         0.000000
   3534 C           5.5575  -15.2691   88.4177 ca      1  CNT         0.000000
   3535 C           6.2183  -15.0122   89.6458 ca      1  CNT         0.000000
   3536 C           7.5030  -14.4131   89.6458 ca      1  CNT         0.000000
   3537 C           8.1245  -14.0721   88.4177 ca      1  CNT         0.000000
   3538 C           9.3201  -13.3105   88.4177 ca      1  CNT         0.000000
   3539 C           9.8918  -12.8913   89.6458 ca      1  CNT         0.000000
   3540 C          10.9777  -11.9801   89.6458 ca      1  CNT         0.000000
   3541 C          11.4898  -11.4898   88.4177 ca      1  CNT         0.000000
   3542 C          12.4475  -10.4447   88.4177 ca      1  CNT         0.000000
   3543 C          12.8913   -9.8918   89.6458 ca      1  CNT         0.000000
   3544 C          13.7043   -8.7306   89.6458 ca      1  CNT         0.000000
   3545 C          14.0721   -8.1245   88.4177 ca      1  CNT         0.000000
   3546 C          14.7267   -6.8672   88.4177 ca      1  CNT         0.000000
   3547 C          15.0122   -6.2183   89.6458 ca      1  CNT         0.000000
   3548 C          15.4970   -4.8862   89.6458 ca      1  CNT         0.000000
   3549 C          15.6954   -4.2056   88.4177 ca      1  CNT         0.000000
   3550 C          16.0022   -2.8216   88.4177 ca      1  CNT         0.000000
   3551 C          16.1101   -2.1209   89.6458 ca      1  CNT         0.000000
   3552 C          16.2336   -0.7088   89.6458 ca      1  CNT         0.000000
   3553 C          16.2491    0.0000   90.8738 ca      1  CNT         0.000000
   3554 C          16.1873    1.4162   90.8738 ca      1  CNT         0.000000
   3555 C          16.1101    2.1209   92.1018 ca      1  CNT         0.000000
   3556 C          15.8639    3.5169   92.1018 ca      1  CNT         0.000000
   3557 C          15.6954    4.2056   90.8738 ca      1  CNT         0.000000
   3558 C          15.2691    5.5575   90.8738 ca      1  CNT         0.000000
   3559 C          15.0122    6.2183   92.1018 ca      1  CNT         0.000000
   3560 C          14.4131    7.5030   92.1018 ca      1  CNT         0.000000
   3561 C          14.0721    8.1245   90.8738 ca      1  CNT         0.000000
   3562 C          13.3105    9.3201   90.8738 ca      1  CNT         0.000000
   3563 C          12.8913    9.8918   92.1018 ca      1  CNT         0.000000
   3564 C          11.9801   10.9777   92.1018 ca      1  CNT         0.000000
   3565 C          11.4898   11.4898   90.8738 ca      1  CNT         0.000000
   3566 C          10.4447   12.4475   90.8738 ca      1  CNT         0.000000
   3567 C           9.8918   12.8913   92.1018 ca      1  CNT         0.000000
   3568 C           8.7306   13.7043   92.1018 ca      1  CNT         0.000000
   3569 C           8.1245   14.0721   90.8738 ca      1  CNT         0.000000
   3570 C           6.8672   14.7267   90.8738 ca      1  CNT         0.000000
   3571 C           6.2183   15.0122   92.1018 ca      1  CNT         0.000000
   3572 C           4.8862   15.4970   92.1018 ca      1  CNT         0.000000
   3573 C           4.2056   15.6954   90.8738 ca      1  CNT         0.000000
   3574 C           2.8216   16.0022   90.8738 ca      1  CNT         0.000000
   3575 C           2.1209   16.1101   92.1018 ca      1  CNT         0.000000
   3576 C           0.7088   16.2336   92.1018 ca      1  CNT         0.000000
   3577 C          -0.0000   16.2491   90.8738 ca      1  CNT         0.000000
   3578 C          -1.4162   16.1873   90.8738 ca      1  CNT         0.000000
   3579 C          -2.1209   16.1101   92.1018 ca      1  CNT         0.000000
   3580 C          -3.5169   15.8639   92.1018 ca      1  CNT         0.000000
   3581 C          -4.2056   15.6954   90.8738 ca      1  CNT         0.000000
   3582 C          -5.5575   15.2691   90.8738 ca      1  CNT         0.000000
   3583 C          -6.2183   15.0122   92.1018 ca      1  CNT         0.000000
   3584 C          -7.5030   14.4131   92.1018 ca      1  CNT         0.000000
   3585 C          -8.1245   14.0721   90.8738 ca      1  CNT         0.000000
   3586 C          -9.3201   13.3105   90.8738 ca      1  CNT         0.000000
   3587 C          -9.8918   12.8913   92.1018 ca      1  CNT         0.000000
   3588 C         -10.9777   11.9801   92.1018 ca      1  CNT         0.000000
   3589 C         -11.4898   11.4898   90.8738 ca      1  CNT         0.000000
   3590 C         -12.4475   10.4447   90.8738 ca      1  CNT         0.000000
   3591 C         -12.8913    9.8918   92.1018 ca      1  CNT         0.000000
   3592 C         -13.7043    8.7306   92.1018 ca      1  CNT         0.000000
   3593 C         -14.0721    8.1245   90.8738 ca      1  CNT         0.000000
   3594 C         -14.7267    6.8672   90.8738 ca      1  CNT         0.000000
   3595 C         -15.0122    6.2183   92.1018 ca      1  CNT         0.000000
   3596 C         -15.4970    4.8862   92.1018 ca      1  CNT         0.000000
   3597 C         -15.6954    4.2056   90.8738 ca      1  CNT         0.000000
   3598 C         -16.0022    2.8216   90.8738 ca      1  CNT         0.000000
   3599 C         -16.1101    2.1209   92.1018 ca      1  CNT         0.000000
   3600 C         -16.2336    0.7088   92.1018 ca      1  CNT         0.000000
   3601 C         -16.2491   -0.0000   90.8738 ca      1  CNT         0.000000
   3602 C         -16.1873   -1.4162   90.8738 ca      1  CNT         0.000000
   3603 C         -16.1101   -2.1209   92.1018 ca      1  CNT         0.000000
   3604 C         -15.8639   -3.5169   92.1018 ca      1  CNT         0.000000
   3605 C         -15.6954   -4.2056   90.8738 ca      1  CNT         0.000000
   3606 C         -15.2691   -5.5575   90.8738 ca      1  CNT         0.000000
   3607 C         -15.0122   -6.2183   92.1018 ca      1  CNT         0.000000
   3608 C         -14.4131   -7.5030   92.1018 ca      1  CNT         0.000000
   3609 C         -14.0721   -8.1245   90.8738 ca      1  CNT         0.000000
   3610 C         -13.3105   -9.3201   90.8738 ca      1  CNT         0.000000
   3611 C         -12.8913   -9.8918   92.1018 ca      1  CNT         0.000000
   3612 C         -11.9801  -10.9777   92.1018 ca      1  CNT         0.000000
   3613 C         -11.4898  -11.4898   90.8738 ca      1  CNT         0.000000
   3614 C         -10.4447  -12.4475   90.8738 ca      1  CNT         0.000000
   3615 C          -9.8918  -12.8913   92.1018 ca      1  CNT         0.000000
   3616 C          -8.7306  -13.7043   92.1018 ca      1  CNT         0.000000
   3617 C          -8.1245  -14.0721   90.8738 ca      1  CNT         0.000000
   3618 C          -6.8672  -14.7267   90.8738 ca      1  CNT         0.000000
   3619 C          -6.2183  -15.0122   92.1018 ca      1  CNT         0.000000
   3620 C          -4.8862  -15.4970   92.1018 ca      1  CNT         0.000000
   3621 C          -4.2056  -15.6954   90.8738 ca      1  CNT         0.000000
   3622 C          -2.8216  -16.0022   90.8738 ca      1  CNT         0.000000
   3623 C          -2.1209  -16.1101   92.1018 ca      1  CNT         0.000000
   3624 C          -0.7088  -16.2336   92.1018 ca      1  CNT         0.000000
   3625 C           0.0000  -16.2491   90.8738 ca      1  CNT         0.000000
   3626 C           1.4162  -16.1873   90.8738 ca      1  CNT         0.000000
   3627 C           2.1209  -16.1101   92.1018 ca      1  CNT         0.000000
   3628 C           3.5169  -15.8639   92.1018 ca      1  CNT         0.000000
   3629 C           4.2056  -15.6954   90.8738 ca      1  CNT         0.000000
   3630 C           5.5575  -15.2691   90.8738 ca      1  CNT         0.000000
   3631 C           6.2183  -15.0122   92.1018 ca      1  CNT         0.000000
   3632 C           7.5030  -14.4131   92.1018 ca      1  CNT         0.000000
   3633 C           8.1245  -14.0721   90.8738 ca      1  CNT         0.000000
   3634 C           9.3201  -13.3105   90.8738 ca      1  CNT         0.000000
   3635 C           9.8918  -12.8913   92.1018 ca      1  CNT         0.000000
   3636 C          10.9777  -11.9801   92.1018 ca      1  CNT         0.000000
   3637 C          11.4898  -11.4898   90.8738 ca      1  CNT         0.000000
   3638 C          12.4475  -10.4447   90.8738 ca      1  CNT         0.000000
   3639 C          12.8913   -9.8918   92.1018 ca      1  CNT         0.000000
   3640 C          13.7043   -8.7306   92.1018 ca      1  CNT         0.000000
   3641 C          14.0721   -8.1245   90.8738 ca      1  CNT         0.000000
   3642 C          14.7267   -6.8672   90.8738 ca      1  CNT         0.000000
   3643 C          15.0122   -6.2183   92.1018 ca      1  CNT         0.000000
   3644 C          15.4970   -4.8862   92.1018 ca      1  CNT         0.000000
   3645 C          15.6954   -4.2056   90.8738 ca      1  CNT         0.000000
   3646 C          16.0022   -2.8216   90.8738 ca      1  CNT         0.000000
   3647 C          16.1101   -2.1209   92.1018 ca      1  CNT         0.000000
   3648 C          16.2336   -0.7088   92.1018 ca      1  CNT         0.000000
   3649 C          16.2491    0.0000   93.3298 ca      1  CNT         0.000000
   3650 C          16.1873    1.4162   93.3298 ca      1  CNT         0.000000
   3651 C          16.1101    2.1209   94.5578 ca      1  CNT         0.000000
   3652 C          15.8639    3.5169   94.5578 ca      1  CNT         0.000000
   3653 C          15.6954    4.2056   93.3298 ca      1  CNT         0.000000
   3654 C          15.2691    5.5575   93.3298 ca      1  CNT         0.000000
   3655 C          15.0122    6.2183   94.5578 ca      1  CNT         0.000000
   3656 C          14.4131    7.5030   94.5578 ca      1  CNT         0.000000
   3657 C          14.0721    8.1245   93.3298 ca      1  CNT         0.000000
   3658 C          13.3105    9.3201   93.3298 ca      1  CNT         0.000000
   3659 C          12.8913    9.8918   94.5578 ca      1  CNT         0.000000
   3660 C          11.9801   10.9777   94.5578 ca      1  CNT         0.000000
   3661 C          11.4898   11.4898   93.3298 ca      1  CNT         0.000000
   3662 C          10.4447   12.4475   93.3298 ca      1  CNT         0.000000
   3663 C           9.8918   12.8913   94.5578 ca      1  CNT         0.000000
   3664 C           8.7306   13.7043   94.5578 ca      1  CNT         0.000000
   3665 C           8.1245   14.0721   93.3298 ca      1  CNT         0.000000
   3666 C           6.8672   14.7267   93.3298 ca      1  CNT         0.000000
   3667 C           6.2183   15.0122   94.5578 ca      1  CNT         0.000000
   3668 C           4.8862   15.4970   94.5578 ca      1  CNT         0.000000
   3669 C           4.2056   15.6954   93.3298 ca      1  CNT         0.000000
   3670 C           2.8216   16.0022   93.3298 ca      1  CNT         0.000000
   3671 C           2.1209   16.1101   94.5578 ca      1  CNT         0.000000
   3672 C           0.7088   16.2336   94.5578 ca      1  CNT         0.000000
   3673 C          -0.0000   16.2491   93.3298 ca      1  CNT         0.000000
   3674 C          -1.4162   16.1873   93.3298 ca      1  CNT         0.000000
   3675 C          -2.1209   16.1101   94.5578 ca      1  CNT         0.000000
   3676 C          -3.5169   15.8639   94.5578 ca      1  CNT         0.000000
   3677 C          -4.2056   15.6954   93.3298 ca      1  CNT         0.000000
   3678 C          -5.5575   15.2691   93.3298 ca      1  CNT         0.000000
   3679 C          -6.2183   15.0122   94.5578 ca      1  CNT         0.000000
   3680 C          -7.5030   14.4131   94.5578 ca      1  CNT         0.000000
   3681 C          -8.1245   14.0721   93.3298 ca      1  CNT         0.000000
   3682 C          -9.3201   13.3105   93.3298 ca      1  CNT         0.000000
   3683 C          -9.8918   12.8913   94.5578 ca      1  CNT         0.000000
   3684 C         -10.9777   11.9801   94.5578 ca      1  CNT         0.000000
   3685 C         -11.4898   11.4898   93.3298 ca      1  CNT         0.000000
   3686 C         -12.4475   10.4447   93.3298 ca      1  CNT         0.000000
   3687 C         -12.8913    9.8918   94.5578 ca      1  CNT         0.000000
   3688 C         -13.7043    8.7306   94.5578 ca      1  CNT         0.000000
   3689 C         -14.0721    8.1245   93.3298 ca      1  CNT         0.000000
   3690 C         -14.7267    6.8672   93.3298 ca      1  CNT         0.000000
   3691 C         -15.0122    6.2183   94.5578 ca      1  CNT         0.000000
   3692 C         -15.4970    4.8862   94.5578 ca      1  CNT         0.000000
   3693 C         -15.6954    4.2056   93.3298 ca      1  CNT         0.000000
   3694 C         -16.0022    2.8216   93.3298 ca      1  CNT         0.000000
   3695 C         -16.1101    2.1209   94.5578 ca      1  CNT         0.000000
   3696 C         -16.2336    0.7088   94.5578 ca      1  CNT         0.000000
   3697 C         -16.2491   -0.0000   93.3298 ca      1  CNT         0.000000
   3698 C         -16.1873   -1.4162   93.3298 ca      1  CNT         0.000000
   3699 C         -16.1101   -2.1209   94.5578 ca      1  CNT         0.000000
   3700 C         -15.8639   -3.5169   94.5578 ca      1  CNT         0.000000
   3701 C         -15.6954   -4.2056   93.3298 ca      1  CNT         0.000000
   3702 C         -15.2691   -5.5575   93.3298 ca      1  CNT         0.000000
   3703 C         -15.0122   -6.2183   94.5578 ca      1  CNT         0.000000
   3704 C         -14.4131   -7.5030   94.5578 ca      1  CNT         0.000000
   3705 C         -14.0721   -8.1245   93.3298 ca      1  CNT         0.000000
   3706 C         -13.3105   -9.3201   93.3298 ca      1  CNT         0.000000
   3707 C         -12.8913   -9.8918   94.5578 ca      1  CNT         0.000000
   3708 C         -11.9801  -10.9777   94.5578 ca      1  CNT         0.000000
   3709 C         -11.4898  -11.4898   93.3298 ca      1  CNT         0.000000
   3710 C         -10.4447  -12.4475   93.3298 ca      1  CNT         0.000000
   3711 C          -9.8918  -12.8913   94.5578 ca      1  CNT         0.000000
   3712 C          -8.7306  -13.7043   94.5578 ca      1  CNT         0.000000
   3713 C          -8.1245  -14.0721   93.3298 ca      1  CNT         0.000000
   3714 C          -6.8672  -14.7267   93.3298 ca      1  CNT         0.000000
   3715 C          -6.2183  -15.0122   94.5578 ca      1  CNT         0.000000
   3716 C          -4.8862  -15.4970   94.5578 ca      1  CNT         0.000000
   3717 C          -4.2056  -15.6954   93.3298 ca      1  CNT         0.000000
   3718 C          -2.8216  -16.0022   93.3298 ca      1  CNT         0.000000
   3719 C          -2.1209  -16.1101   94.5578 ca      1  CNT         0.000000
   3720 C          -0.7088  -16.2336   94.5578 ca      1  CNT         0.000000
   3721 C           0.0000  -16.2491   93.3298 ca      1  CNT         0.000000
   3722 C           1.4162  -16.1873   93.3298 ca      1  CNT         0.000000
   3723 C           2.1209  -16.1101   94.5578 ca      1  CNT         0.000000
   3724 C           3.5169  -15.8639   94.5578 ca      1  CNT         0.000000
   3725 C           4.2056  -15.6954   93.3298 ca      1  CNT         0.000000
   3726 C           5.5575  -15.2691   93.3298 ca      1  CNT         0.000000
   3727 C           6.2183  -15.0122   94.5578 ca      1  CNT         0.000000
   3728 C           7.5030  -14.4131   94.5578 ca      1  CNT         0.000000
   3729 C           8.1245  -14.0721   93.3298 ca      1  CNT         0.000000
   3730 C           9.3201  -13.3105   93.3298 ca      1  CNT         0.000000
   3731 C           9.8918  -12.8913   94.5578 ca      1  CNT         0.000000
   3732 C          10.9777  -11.9801   94.5578 ca      1  CNT         0.000000
   3733 C          11.4898  -11.4898   93.3298 ca      1  CNT         0.000000
   3734 C          12.4475  -10.4447   93.3298 ca      1  CNT         0.000000
   3735 C          12.8913   -9.8918   94.5578 ca      1  CNT         0.000000
   3736 C          13.7043   -8.7306   94.5578 ca      1  CNT         0.000000
   3737 C          14.0721   -8.1245   93.3298 ca      1  CNT         0.000000
   3738 C          14.7267   -6.8672   93.3298 ca      1  CNT         0.000000
   3739 C          15.0122   -6.2183   94.5578 ca      1  CNT         0.000000
   3740 C          15.4970   -4.8862   94.5578 ca      1  CNT         0.000000
   3741 C          15.6954   -4.2056   93.3298 ca      1  CNT         0.000000
   3742 C          16.0022   -2.8216   93.3298 ca      1  CNT         0.000000
   3743 C          16.1101   -2.1209   94.5578 ca      1  CNT         0.000000
   3744 C          16.2336   -0.7088   94.5578 ca      1  CNT         0.000000
   3745 C          16.2491    0.0000   95.7859 ca      1  CNT         0.000000
   3746 C          16.1873    1.4162   95.7859 ca      1  CNT         0.000000
   3747 C          16.1101    2.1209   97.0139 ca      1  CNT         0.000000
   3748 C          15.8639    3.5169   97.0139 ca      1  CNT         0.000000
   3749 C          15.6954    4.2056   95.7859 ca      1  CNT         0.000000
   3750 C          15.2691    5.5575   95.7859 ca      1  CNT         0.000000
   3751 C          15.0122    6.2183   97.0139 ca      1  CNT         0.000000
   3752 C          14.4131    7.5030   97.0139 ca      1  CNT         0.000000
   3753 C          14.0721    8.1245   95.7859 ca      1  CNT         0.000000
   3754 C          13.3105    9.3201   95.7859 ca      1  CNT         0.000000
   3755 C          12.8913    9.8918   97.0139 ca      1  CNT         0.000000
   3756 C          11.9801   10.9777   97.0139 ca      1  CNT         0.000000
   3757 C          11.4898   11.4898   95.7859 ca      1  CNT         0.000000
   3758 C          10.4447   12.4475   95.7859 ca      1  CNT         0.000000
   3759 C           9.8918   12.8913   97.0139 ca      1  CNT         0.000000
   3760 C           8.7306   13.7043   97.0139 ca      1  CNT         0.000000
   3761 C           8.1245   14.0721   95.7859 ca      1  CNT         0.000000
   3762 C           6.8672   14.7267   95.7859 ca      1  CNT         0.000000
   3763 C           6.2183   15.0122   97.0139 ca      1  CNT         0.000000
   3764 C           4.8862   15.4970   97.0139 ca      1  CNT         0.000000
   3765 C           4.2056   15.6954   95.7859 ca      1  CNT         0.000000
   3766 C           2.8216   16.0022   95.7859 ca      1  CNT         0.000000
   3767 C           2.1209   16.1101   97.0139 ca      1  CNT         0.000000
   3768 C           0.7088   16.2336   97.0139 ca      1  CNT         0.000000
   3769 C          -0.0000   16.2491   95.7859 ca      1  CNT         0.000000
   3770 C          -1.4162   16.1873   95.7859 ca      1  CNT         0.000000
   3771 C          -2.1209   16.1101   97.0139 ca      1  CNT         0.000000
   3772 C          -3.5169   15.8639   97.0139 ca      1  CNT         0.000000
   3773 C          -4.2056   15.6954   95.7859 ca      1  CNT         0.000000
   3774 C          -5.5575   15.2691   95.7859 ca      1  CNT         0.000000
   3775 C          -6.2183   15.0122   97.0139 ca      1  CNT         0.000000
   3776 C          -7.5030   14.4131   97.0139 ca      1  CNT         0.000000
   3777 C          -8.1245   14.0721   95.7859 ca      1  CNT         0.000000
   3778 C          -9.3201   13.3105   95.7859 ca      1  CNT         0.000000
   3779 C          -9.8918   12.8913   97.0139 ca      1  CNT         0.000000
   3780 C         -10.9777   11.9801   97.0139 ca      1  CNT         0.000000
   3781 C         -11.4898   11.4898   95.7859 ca      1  CNT         0.000000
   3782 C         -12.4475   10.4447   95.7859 ca      1  CNT         0.000000
   3783 C         -12.8913    9.8918   97.0139 ca      1  CNT         0.000000
   3784 C         -13.7043    8.7306   97.0139 ca      1  CNT         0.000000
   3785 C         -14.0721    8.1245   95.7859 ca      1  CNT         0.000000
   3786 C         -14.7267    6.8672   95.7859 ca      1  CNT         0.000000
   3787 C         -15.0122    6.2183   97.0139 ca      1  CNT         0.000000
   3788 C         -15.4970    4.8862   97.0139 ca      1  CNT         0.000000
   3789 C         -15.6954    4.2056   95.7859 ca      1  CNT         0.000000
   3790 C         -16.0022    2.8216   95.7859 ca      1  CNT         0.000000
   3791 C         -16.1101    2.1209   97.0139 ca      1  CNT         0.000000
   3792 C         -16.2336    0.7088   97.0139 ca      1  CNT         0.000000
   3793 C         -16.2491   -0.0000   95.7859 ca      1  CNT         0.000000
   3794 C         -16.1873   -1.4162   95.7859 ca      1  CNT         0.000000
   3795 C         -16.1101   -2.1209   97.0139 ca      1  CNT         0.000000
   3796 C         -15.8639   -3.5169   97.0139 ca      1  CNT         0.000000
   3797 C         -15.6954   -4.2056   95.7859 ca      1  CNT         0.000000
   3798 C         -15.2691   -5.5575   95.7859 ca      1  CNT         0.000000
   3799 C         -15.0122   -6.2183   97.0139 ca      1  CNT         0.000000
   3800 C         -14.4131   -7.5030   97.0139 ca      1  CNT         0.000000
   3801 C         -14.0721   -8.1245   95.7859 ca      1  CNT         0.000000
   3802 C         -13.3105   -9.3201   95.7859 ca      1  CNT         0.000000
   3803 C         -12.8913   -9.8918   97.0139 ca      1  CNT         0.000000
   3804 C         -11.9801  -10.9777   97.0139 ca      1  CNT         0.000000
   3805 C         -11.4898  -11.4898   95.7859 ca      1  CNT         0.000000
   3806 C         -10.4447  -12.4475   95.7859 ca      1  CNT         0.000000
   3807 C          -9.8918  -12.8913   97.0139 ca      1  CNT         0.000000
   3808 C          -8.7306  -13.7043   97.0139 ca      1  CNT         0.000000
   3809 C          -8.1245  -14.0721   95.7859 ca      1  CNT         0.000000
   3810 C          -6.8672  -14.7267   95.7859 ca      1  CNT         0.000000
   3811 C          -6.2183  -15.0122   97.0139 ca      1  CNT         0.000000
   3812 C          -4.8862  -15.4970   97.0139 ca      1  CNT         0.000000
   3813 C          -4.2056  -15.6954   95.7859 ca      1  CNT         0.000000
   3814 C          -2.8216  -16.0022   95.7859 ca      1  CNT         0.000000
   3815 C          -2.1209  -16.1101   97.0139 ca      1  CNT         0.000000
   3816 C          -0.7088  -16.2336   97.0139 ca      1  CNT         0.000000
   3817 C           0.0000  -16.2491   95.7859 ca      1  CNT         0.000000
   3818 C           1.4162  -16.1873   95.7859 ca      1  CNT         0.000000
   3819 C           2.1209  -16.1101   97.0139 ca      1  CNT         0.000000
   3820 C           3.5169  -15.8639   97.0139 ca      1  CNT         0.000000
   3821 C           4.2056  -15.6954   95.7859 ca      1  CNT         0.000000
   3822 C           5.5575  -15.2691   95.7859 ca      1  CNT         0.000000
   3823 C           6.2183  -15.0122   97.0139 ca      1  CNT         0.000000
   3824 C           7.5030  -14.4131   97.0139 ca      1  CNT         0.000000
   3825 C           8.1245  -14.0721   95.7859 ca      1  CNT         0.000000
   3826 C           9.3201  -13.3105   95.7859 ca      1  CNT         0.000000
   3827 C           9.8918  -12.8913   97.0139 ca      1  CNT         0.000000
   3828 C          10.9777  -11.9801   97.0139 ca      1  CNT         0.000000
   3829 C          11.4898  -11.4898   95.7859 ca      1  CNT         0.000000
   3830 C          12.4475  -10.4447   95.7859 ca      1  CNT         0.000000
   3831 C          12.8913   -9.8918   97.0139 ca      1  CNT         0.000000
   3832 C          13.7043   -8.7306   97.0139 ca      1  CNT         0.000000
   3833 C          14.0721   -8.1245   95.7859 ca      1  CNT         0.000000
   3834 C          14.7267   -6.8672   95.7859 ca      1  CNT         0.000000
   3835 C          15.0122   -6.2183   97.0139 ca      1  CNT         0.000000
   3836 C          15.4970   -4.8862   97.0139 ca      1  CNT         0.000000
   3837 C          15.6954   -4.2056   95.7859 ca      1  CNT         0.000000
   3838 C          16.0022   -2.8216   95.7859 ca      1  CNT         0.000000
   3839 C          16.1101   -2.1209   97.0139 ca      1  CNT         0.000000
   3840 C          16.2336   -0.7088   97.0139 ca      1  CNT         0.000000
   3841 C          16.2491    0.0000   98.2419 ca      1  CNT         0.000000
   3842 C          16.1873    1.4162   98.2419 ca      1  CNT         0.000000
   3843 C          16.1101    2.1209   99.4699 ca      1  CNT         0.000000
   3844 C          15.8639    3.5169   99.4699 ca      1  CNT         0.000000
   3845 C          15.6954    4.2056   98.2419 ca      1  CNT         0.000000
   3846 C          15.2691    5.5575   98.2419 ca      1  CNT         0.000000
   3847 C          15.0122    6.2183   99.4699 ca      1  CNT         0.000000
   3848 C          14.4131    7.5030   99.4699 ca      1  CNT         0.000000
   3849 C          14.0721    8.1245   98.2419 ca      1  CNT         0.000000
   3850 C          13.3105    9.3201   98.2419 ca      1  CNT         0.000000
   3851 C          12.8913    9.8918   99.4699 ca      1  CNT         0.000000
   3852 C          11.9801   10.9777   99.4699 ca      1  CNT         0.000000
   3853 C          11.4898   11.4898   98.2419 ca      1  CNT         0.000000
   3854 C          10.4447   12.4475   98.2419 ca      1  CNT         0.000000
   3855 C           9.8918   12.8913   99.4699 ca      1  CNT         0.000000
   3856 C           8.7306   13.7043   99.4699 ca      1  CNT         0.000000
   3857 C           8.1245   14.0721   98.2419 ca      1  CNT         0.000000
   3858 C           6.8672   14.7267   98.2419 ca      1  CNT         0.000000
   3859 C           6.2183   15.0122   99.4699 ca      1  CNT         0.000000
   3860 C           4.8862   15.4970   99.4699 ca      1  CNT         0.000000
   3861 C           4.2056   15.6954   98.2419 ca      1  CNT         0.000000
   3862 C           2.8216   16.0022   98.2419 ca      1  CNT         0.000000
   3863 C           2.1209   16.1101   99.4699 ca      1  CNT         0.000000
   3864 C           0.7088   16.2336   99.4699 ca      1  CNT         0.000000
   3865 C          -0.0000   16.2491   98.2419 ca      1  CNT         0.000000
   3866 C          -1.4162   16.1873   98.2419 ca      1  CNT         0.000000
   3867 C          -2.1209   16.1101   99.4699 ca      1  CNT         0.000000
   3868 C          -3.5169   15.8639   99.4699 ca      1  CNT         0.000000
   3869 C          -4.2056   15.6954   98.2419 ca      1  CNT         0.000000
   3870 C          -5.5575   15.2691   98.2419 ca      1  CNT         0.000000
   3871 C          -6.2183   15.0122   99.4699 ca      1  CNT         0.000000
   3872 C          -7.5030   14.4131   99.4699 ca      1  CNT         0.000000
   3873 C          -8.1245   14.0721   98.2419 ca      1  CNT         0.000000
   3874 C          -9.3201   13.3105   98.2419 ca      1  CNT         0.000000
   3875 C          -9.8918   12.8913   99.4699 ca      1  CNT         0.000000
   3876 C         -10.9777   11.9801   99.4699 ca      1  CNT         0.000000
   3877 C         -11.4898   11.4898   98.2419 ca      1  CNT         0.000000
   3878 C         -12.4475   10.4447   98.2419 ca      1  CNT         0.000000
   3879 C         -12.8913    9.8918   99.4699 ca      1  CNT         0.000000
   3880 C         -13.7043    8.7306   99.4699 ca      1  CNT         0.000000
   3881 C         -14.0721    8.1245   98.2419 ca      1  CNT         0.000000
   3882 C         -14.7267    6.8672   98.2419 ca      1  CNT         0.000000
   3883 C         -15.0122    6.2183   99.4699 ca      1  CNT         0.000000
   3884 C         -15.4970    4.8862   99.4699 ca      1  CNT         0.000000
   3885 C         -15.6954    4.2056   98.2419 ca      1  CNT         0.000000
   3886 C         -16.0022    2.8216   98.2419 ca      1  CNT         0.000000
   3887 C         -16.1101    2.1209   99.4699 ca      1  CNT         0.000000
   3888 C         -16.2336    0.7088   99.4699 ca      1  CNT         0.000000
   3889 C         -16.2491   -0.0000   98.2419 ca      1  CNT         0.000000
   3890 C         -16.1873   -1.4162   98.2419 ca      1  CNT         0.000000
   3891 C         -16.1101   -2.1209   99.4699 ca      1  CNT         0.000000
   3892 C         -15.8639   -3.5169   99.4699 ca      1  CNT         0.000000
   3893 C         -15.6954   -4.2056   98.2419 ca      1  CNT         0.000000
   3894 C         -15.2691   -5.5575   98.2419 ca      1  CNT         0.000000
   3895 C         -15.0122   -6.2183   99.4699 ca      1  CNT         0.000000
   3896 C         -14.4131   -7.5030   99.4699 ca      1  CNT         0.000000
   3897 C         -14.0721   -8.1245   98.2419 ca      1  CNT         0.000000
   3898 C         -13.3105   -9.3201   98.2419 ca      1  CNT         0.000000
   3899 C         -12.8913   -9.8918   99.4699 ca      1  CNT         0.000000
   3900 C         -11.9801  -10.9777   99.4699 ca      1  CNT         0.000000
   3901 C         -11.4898  -11.4898   98.2419 ca      1  CNT         0.000000
   3902 C         -10.4447  -12.4475   98.2419 ca      1  CNT         0.000000
   3903 C          -9.8918  -12.8913   99.4699 ca      1  CNT         0.000000
   3904 C          -8.7306  -13.7043   99.4699 ca      1  CNT         0.000000
   3905 C          -8.1245  -14.0721   98.2419 ca      1  CNT         0.000000
   3906 C          -6.8672  -14.7267   98.2419 ca      1  CNT         0.000000
   3907 C          -6.2183  -15.0122   99.4699 ca      1  CNT         0.000000
   3908 C          -4.8862  -15.4970   99.4699 ca      1  CNT         0.000000
   3909 C          -4.2056  -15.6954   98.2419 ca      1  CNT         0.000000
   3910 C          -2.8216  -16.0022   98.2419 ca      1  CNT         0.000000
   3911 C          -2.1209  -16.1101   99.4699 ca      1  CNT         0.000000
   3912 C          -0.7088  -16.2336   99.4699 ca      1  CNT         0.000000
   3913 C           0.0000  -16.2491   98.2419 ca      1  CNT         0.000000
   3914 C           1.4162  -16.1873   98.2419 ca      1  CNT         0.000000
   3915 C           2.1209  -16.1101   99.4699 ca      1  CNT         0.000000
   3916 C           3.5169  -15.8639   99.4699 ca      1  CNT         0.000000
   3917 C           4.2056  -15.6954   98.2419 ca      1  CNT         0.000000
   3918 C           5.5575  -15.2691   98.2419 ca      1  CNT         0.000000
   3919 C           6.2183  -15.0122   99.4699 ca      1  CNT         0.000000
   3920 C           7.5030  -14.4131   99.4699 ca      1  CNT         0.000000
   3921 C           8.1245  -14.0721   98.2419 ca      1  CNT         0.000000
   3922 C           9.3201  -13.3105   98.2419 ca      1  CNT         0.000000
   3923 C           9.8918  -12.8913   99.4699 ca      1  CNT         0.000000
   3924 C          10.9777  -11.9801   99.4699 ca      1  CNT         0.000000
   3925 C          11.4898  -11.4898   98.2419 ca      1  CNT         0.000000
   3926 C          12.4475  -10.4447   98.2419 ca      1  CNT         0.000000
   3927 C          12.8913   -9.8918   99.4699 ca      1  CNT         0.000000
   3928 C          13.7043   -8.7306   99.4699 ca      1  CNT         0.000000
   3929 C          14.0721   -8.1245   98.2419 ca      1  CNT         0.000000
   3930 C          14.7267   -6.8672   98.2419 ca      1  CNT         0.000000
   3931 C          15.0122   -6.2183   99.4699 ca      1  CNT         0.000000
   3932 C          15.4970   -4.8862   99.4699 ca      1  CNT         0.000000
   3933 C          15.6954   -4.2056   98.2419 ca      1  CNT         0.000000
   3934 C          16.0022   -2.8216   98.2419 ca      1  CNT         0.000000
   3935 C          16.1101   -2.1209   99.4699 ca      1  CNT         0.000000
   3936 C          16.2336   -0.7088   99.4699 ca      1  CNT         0.000000
   3937 C          16.2491    0.0000  100.6980 ca      1  CNT         0.000000
   3938 C          16.1873    1.4162  100.6980 ca      1  CNT         0.000000
   3939 C          16.1101    2.1209  101.9260 ca      1  CNT         0.000000
   3940 C          15.8639    3.5169  101.9260 ca      1  CNT         0.000000
   3941 C          15.6954    4.2056  100.6980 ca      1  CNT         0.000000
   3942 C          15.2691    5.5575  100.6980 ca      1  CNT         0.000000
   3943 C          15.0122    6.2183  101.9260 ca      1  CNT         0.000000
   3944 C          14.4131    7.5030  101.9260 ca      1  CNT         0.000000
   3945 C          14.0721    8.1245  100.6980 ca      1  CNT         0.000000
   3946 C          13.3105    9.3201  100.6980 ca      1  CNT         0.000000
   3947 C          12.8913    9.8918  101.9260 ca      1  CNT         0.000000
   3948 C          11.9801   10.9777  101.9260 ca      1  CNT         0.000000
   3949 C          11.4898   11.4898  100.6980 ca      1  CNT         0.000000
   3950 C          10.4447   12.4475  100.6980 ca      1  CNT         0.000000
   3951 C           9.8918   12.8913  101.9260 ca      1  CNT         0.000000
   3952 C           8.7306   13.7043  101.9260 ca      1  CNT         0.000000
   3953 C           8.1245   14.0721  100.6980 ca      1  CNT         0.000000
   3954 C           6.8672   14.7267  100.6980 ca      1  CNT         0.000000
   3955 C           6.2183   15.0122  101.9260 ca      1  CNT         0.000000
   3956 C           4.8862   15.4970  101.9260 ca      1  CNT         0.000000
   3957 C           4.2056   15.6954  100.6980 ca      1  CNT         0.000000
   3958 C           2.8216   16.0022  100.6980 ca      1  CNT         0.000000
   3959 C           2.1209   16.1101  101.9260 ca      1  CNT         0.000000
   3960 C           0.7088   16.2336  101.9260 ca      1  CNT         0.000000
   3961 C          -0.0000   16.2491  100.6980 ca      1  CNT         0.000000
   3962 C          -1.4162   16.1873  100.6980 ca      1  CNT         0.000000
   3963 C          -2.1209   16.1101  101.9260 ca      1  CNT         0.000000
   3964 C          -3.5169   15.8639  101.9260 ca      1  CNT         0.000000
   3965 C          -4.2056   15.6954  100.6980 ca      1  CNT         0.000000
   3966 C          -5.5575   15.2691  100.6980 ca      1  CNT         0.000000
   3967 C          -6.2183   15.0122  101.9260 ca      1  CNT         0.000000
   3968 C          -7.5030   14.4131  101.9260 ca      1  CNT         0.000000
   3969 C          -8.1245   14.0721  100.6980 ca      1  CNT         0.000000
   3970 C          -9.3201   13.3105  100.6980 ca      1  CNT         0.000000
   3971 C          -9.8918   12.8913  101.9260 ca      1  CNT         0.000000
   3972 C         -10.9777   11.9801  101.9260 ca      1  CNT         0.000000
   3973 C         -11.4898   11.4898  100.6980 ca      1  CNT         0.000000
   3974 C         -12.4475   10.4447  100.6980 ca      1  CNT         0.000000
   3975 C         -12.8913    9.8918  101.9260 ca      1  CNT         0.000000
   3976 C         -13.7043    8.7306  101.9260 ca      1  CNT         0.000000
   3977 C         -14.0721    8.1245  100.6980 ca      1  CNT         0.000000
   3978 C         -14.7267    6.8672  100.6980 ca      1  CNT         0.000000
   3979 C         -15.0122    6.2183  101.9260 ca      1  CNT         0.000000
   3980 C         -15.4970    4.8862  101.9260 ca      1  CNT         0.000000
   3981 C         -15.6954    4.2056  100.6980 ca      1  CNT         0.000000
   3982 C         -16.0022    2.8216  100.6980 ca      1  CNT         0.000000
   3983 C         -16.1101    2.1209  101.9260 ca      1  CNT         0.000000
   3984 C         -16.2336    0.7088  101.9260 ca      1  CNT         0.000000
   3985 C         -16.2491   -0.0000  100.6980 ca      1  CNT         0.000000
   3986 C         -16.1873   -1.4162  100.6980 ca      1  CNT         0.000000
   3987 C         -16.1101   -2.1209  101.9260 ca      1  CNT         0.000000
   3988 C         -15.8639   -3.5169  101.9260 ca      1  CNT         0.000000
   3989 C         -15.6954   -4.2056  100.6980 ca      1  CNT         0.000000
   3990 C         -15.2691   -5.5575  100.6980 ca      1  CNT         0.000000
   3991 C         -15.0122   -6.2183  101.9260 ca      1  CNT         0.000000
   3992 C         -14.4131   -7.5030  101.9260 ca      1  CNT         0.000000
   3993 C         -14.0721   -8.1245  100.6980 ca      1  CNT         0.000000
   3994 C         -13.3105   -9.3201  100.6980 ca      1  CNT         0.000000
   3995 C         -12.8913   -9.8918  101.9260 ca      1  CNT         0.000000
   3996 C         -11.9801  -10.9777  101.9260 ca      1  CNT         0.000000
   3997 C         -11.4898  -11.4898  100.6980 ca      1  CNT         0.000000
   3998 C         -10.4447  -12.4475  100.6980 ca      1  CNT         0.000000
   3999 C          -9.8918  -12.8913  101.9260 ca      1  CNT         0.000000
   4000 C          -8.7306  -13.7043  101.9260 ca      1  CNT         0.000000
   4001 C          -8.1245  -14.0721  100.6980 ca      1  CNT         0.000000
   4002 C          -6.8672  -14.7267  100.6980 ca      1  CNT         0.000000
   4003 C          -6.2183  -15.0122  101.9260 ca      1  CNT         0.000000
   4004 C          -4.8862  -15.4970  101.9260 ca      1  CNT         0.000000
   4005 C          -4.2056  -15.6954  100.6980 ca      1  CNT         0.000000
   4006 C          -2.8216  -16.0022  100.6980 ca      1  CNT         0.000000
   4007 C          -2.1209  -16.1101  101.9260 ca      1  CNT         0.000000
   4008 C          -0.7088  -16.2336  101.9260 ca      1  CNT         0.000000
   4009 C           0.0000  -16.2491  100.6980 ca      1  CNT         0.000000
   4010 C           1.4162  -16.1873  100.6980 ca      1  CNT         0.000000
   4011 C           2.1209  -16.1101  101.9260 ca      1  CNT         0.000000
   4012 C           3.5169  -15.8639  101.9260 ca      1  CNT         0.000000
   4013 C           4.2056  -15.6954  100.6980 ca      1  CNT         0.000000
   4014 C           5.5575  -15.2691  100.6980 ca      1  CNT         0.000000
   4015 C           6.2183  -15.0122  101.9260 ca      1  CNT         0.000000
   4016 C           7.5030  -14.4131  101.9260 ca      1  CNT         0.000000
   4017 C           8.1245  -14.0721  100.6980 ca      1  CNT         0.000000
   4018 C           9.3201  -13.3105  100.6980 ca      1  CNT         0.000000
   4019 C           9.8918  -12.8913  101.9260 ca      1  CNT         0.000000
   4020 C          10.9777  -11.9801  101.9260 ca      1  CNT         0.000000
   4021 C          11.4898  -11.4898  100.6980 ca      1  CNT         0.000000
   4022 C          12.4475  -10.4447  100.6980 ca      1  CNT         0.000000
   4023 C          12.8913   -9.8918  101.9260 ca      1  CNT         0.000000
   4024 C          13.7043   -8.7306  101.9260 ca      1  CNT         0.000000
   4025 C          14.0721   -8.1245  100.6980 ca      1  CNT         0.000000
   4026 C          14.7267   -6.8672  100.6980 ca      1  CNT         0.000000
   4027 C          15.0122   -6.2183  101.9260 ca      1  CNT         0.000000
   4028 C          15.4970   -4.8862  101.9260 ca      1  CNT         0.000000
   4029 C          15.6954   -4.2056  100.6980 ca      1  CNT         0.000000
   4030 C          16.0022   -2.8216  100.6980 ca      1  CNT         0.000000
   4031 C          16.1101   -2.1209  101.9260 ca      1  CNT         0.000000
   4032 C          16.2336   -0.7088  101.9260 ca      1  CNT         0.000000
   4033 C          16.2491    0.0000  103.1540 ca      1  CNT         0.000000
   4034 C          16.1873    1.4162  103.1540 ca      1  CNT         0.000000
   4035 C          16.1101    2.1209  104.3820 ca      1  CNT         0.000000
   4036 C          15.8639    3.5169  104.3820 ca      1  CNT         0.000000
   4037 C          15.6954    4.2056  103.1540 ca      1  CNT         0.000000
   4038 C          15.2691    5.5575  103.1540 ca      1  CNT         0.000000
   4039 C          15.0122    6.2183  104.3820 ca      1  CNT         0.000000
   4040 C          14.4131    7.5030  104.3820 ca      1  CNT         0.000000
   4041 C          14.0721    8.1245  103.1540 ca      1  CNT         0.000000
   4042 C          13.3105    9.3201  103.1540 ca      1  CNT         0.000000
   4043 C          12.8913    9.8918  104.3820 ca      1  CNT         0.000000
   4044 C          11.9801   10.9777  104.3820 ca      1  CNT         0.000000
   4045 C          11.4898   11.4898  103.1540 ca      1  CNT         0.000000
   4046 C          10.4447   12.4475  103.1540 ca      1  CNT         0.000000
   4047 C           9.8918   12.8913  104.3820 ca      1  CNT         0.000000
   4048 C           8.7306   13.7043  104.3820 ca      1  CNT         0.000000
   4049 C           8.1245   14.0721  103.1540 ca      1  CNT         0.000000
   4050 C           6.8672   14.7267  103.1540 ca      1  CNT         0.000000
   4051 C           6.2183   15.0122  104.3820 ca      1  CNT         0.000000
   4052 C           4.8862   15.4970  104.3820 ca      1  CNT         0.000000
   4053 C           4.2056   15.6954  103.1540 ca      1  CNT         0.000000
   4054 C           2.8216   16.0022  103.1540 ca      1  CNT         0.000000
   4055 C           2.1209   16.1101  104.3820 ca      1  CNT         0.000000
   4056 C           0.7088   16.2336  104.3820 ca      1  CNT         0.000000
   4057 C          -0.0000   16.2491  103.1540 ca      1  CNT         0.000000
   4058 C          -1.4162   16.1873  103.1540 ca      1  CNT         0.000000
   4059 C          -2.1209   16.1101  104.3820 ca      1  CNT         0.000000
   4060 C          -3.5169   15.8639  104.3820 ca      1  CNT         0.000000
   4061 C          -4.2056   15.6954  103.1540 ca      1  CNT         0.000000
   4062 C          -5.5575   15.2691  103.1540 ca      1  CNT         0.000000
   4063 C          -6.2183   15.0122  104.3820 ca      1  CNT         0.000000
   4064 C          -7.5030   14.4131  104.3820 ca      1  CNT         0.000000
   4065 C          -8.1245   14.0721  103.1540 ca      1  CNT         0.000000
   4066 C          -9.3201   13.3105  103.1540 ca      1  CNT         0.000000
   4067 C          -9.8918   12.8913  104.3820 ca      1  CNT         0.000000
   4068 C         -10.9777   11.9801  104.3820 ca      1  CNT         0.000000
   4069 C         -11.4898   11.4898  103.1540 ca      1  CNT         0.000000
   4070 C         -12.4475   10.4447  103.1540 ca      1  CNT         0.000000
   4071 C         -12.8913    9.8918  104.3820 ca      1  CNT         0.000000
   4072 C         -13.7043    8.7306  104.3820 ca      1  CNT         0.000000
   4073 C         -14.0721    8.1245  103.1540 ca      1  CNT         0.000000
   4074 C         -14.7267    6.8672  103.1540 ca      1  CNT         0.000000
   4075 C         -15.0122    6.2183  104.3820 ca      1  CNT         0.000000
   4076 C         -15.4970    4.8862  104.3820 ca      1  CNT         0.000000
   4077 C         -15.6954    4.2056  103.1540 ca      1  CNT         0.000000
   4078 C         -16.0022    2.8216  103.1540 ca      1  CNT         0.000000
   4079 C         -16.1101    2.1209  104.3820 ca      1  CNT         0.000000
   4080 C         -16.2336    0.7088  104.3820 ca      1  CNT         0.000000
   4081 C         -16.2491   -0.0000  103.1540 ca      1  CNT         0.000000
   4082 C         -16.1873   -1.4162  103.1540 ca      1  CNT         0.000000
   4083 C         -16.1101   -2.1209  104.3820 ca      1  CNT         0.000000
   4084 C         -15.8639   -3.5169  104.3820 ca      1  CNT         0.000000
   4085 C         -15.6954   -4.2056  103.1540 ca      1  CNT         0.000000
   4086 C         -15.2691   -5.5575  103.1540 ca      1  CNT         0.000000
   4087 C         -15.0122   -6.2183  104.3820 ca      1  CNT         0.000000
   4088 C         -14.4131   -7.5030  104.3820 ca      1  CNT         0.000000
   4089 C         -14.0721   -8.1245  103.1540 ca      1  CNT         0.000000
   4090 C         -13.3105   -9.3201  103.1540 ca      1  CNT         0.000000
   4091 C         -12.8913   -9.8918  104.3820 ca      1  CNT         0.000000
   4092 C         -11.9801  -10.9777  104.3820 ca      1  CNT         0.000000
   4093 C         -11.4898  -11.4898  103.1540 ca      1  CNT         0.000000
   4094 C         -10.4447  -12.4475  103.1540 ca      1  CNT         0.000000
   4095 C          -9.8918  -12.8913  104.3820 ca      1  CNT         0.000000
   4096 C          -8.7306  -13.7043  104.3820 ca      1  CNT         0.000000
   4097 C          -8.1245  -14.0721  103.1540 ca      1  CNT         0.000000
   4098 C          -6.8672  -14.7267  103.1540 ca      1  CNT         0.000000
   4099 C          -6.2183  -15.0122  104.3820 ca      1  CNT         0.000000
   4100 C          -4.8862  -15.4970  104.3820 ca      1  CNT         0.000000
   4101 C          -4.2056  -15.6954  103.1540 ca      1  CNT         0.000000
   4102 C          -2.8216  -16.0022  103.1540 ca      1  CNT         0.000000
   4103 C          -2.1209  -16.1101  104.3820 ca      1  CNT         0.000000
   4104 C          -0.7088  -16.2336  104.3820 ca      1  CNT         0.000000
   4105 C           0.0000  -16.2491  103.1540 ca      1  CNT         0.000000
   4106 C           1.4162  -16.1873  103.1540 ca      1  CNT         0.000000
   4107 C           2.1209  -16.1101  104.3820 ca      1  CNT         0.000000
   4108 C           3.5169  -15.8639  104.3820 ca      1  CNT         0.000000
   4109 C           4.2056  -15.6954  103.1540 ca      1  CNT         0.000000
   4110 C           5.5575  -15.2691  103.1540 ca      1  CNT         0.000000
   4111 C           6.2183  -15.0122  104.3820 ca      1  CNT         0.000000
   4112 C           7.5030  -14.4131  104.3820 ca      1  CNT         0.000000
   4113 C           8.1245  -14.0721  103.1540 ca      1  CNT         0.000000
   4114 C           9.3201  -13.3105  103.1540 ca      1  CNT         0.000000
   4115 C           9.8918  -12.8913  104.3820 ca      1  CNT         0.000000
   4116 C          10.9777  -11.9801  104.3820 ca      1  CNT         0.000000
   4117 C          11.4898  -11.4898  103.1540 ca      1  CNT         0.000000
   4118 C          12.4475  -10.4447  103.1540 ca      1  CNT         0.000000
   4119 C          12.8913   -9.8918  104.3820 ca      1  CNT         0.000000
   4120 C          13.7043   -8.7306  104.3820 ca      1  CNT         0.000000
   4121 C          14.0721   -8.1245  103.1540 ca      1  CNT         0.000000
   4122 C          14.7267   -6.8672  103.1540 ca      1  CNT         0.000000
   4123 C          15.0122   -6.2183  104.3820 ca      1  CNT         0.000000
   4124 C          15.4970   -4.8862  104.3820 ca      1  CNT         0.000000
   4125 C          15.6954   -4.2056  103.1540 ca      1  CNT         0.000000
   4126 C          16.0022   -2.8216  103.1540 ca      1  CNT         0.000000
   4127 C          16.1101   -2.1209  104.3820 ca      1  CNT         0.000000
   4128 C          16.2336   -0.7088  104.3820 ca      1  CNT         0.000000
   4129 C          16.2491    0.0000  105.6101 ca      1  CNT         0.000000
   4130 C          16.1873    1.4162  105.6101 ca      1  CNT         0.000000
   4131 C          16.1101    2.1209  106.8381 ca      1  CNT         0.000000
   4132 C          15.8639    3.5169  106.8381 ca      1  CNT         0.000000
   4133 C          15.6954    4.2056  105.6101 ca      1  CNT         0.000000
   4134 C          15.2691    5.5575  105.6101 ca      1  CNT         0.000000
   4135 C          15.0122    6.2183  106.8381 ca      1  CNT         0.000000
   4136 C          14.4131    7.5030  106.8381 ca      1  CNT         0.000000
   4137 C          14.0721    8.1245  105.6101 ca      1  CNT         0.000000
   4138 C          13.3105    9.3201  105.6101 ca      1  CNT         0.000000
   4139 C          12.8913    9.8918  106.8381 ca      1  CNT         0.000000
   4140 C          11.9801   10.9777  106.8381 ca      1  CNT         0.000000
   4141 C          11.4898   11.4898  105.6101 ca      1  CNT         0.000000
   4142 C          10.4447   12.4475  105.6101 ca      1  CNT         0.000000
   4143 C           9.8918   12.8913  106.8381 ca      1  CNT         0.000000
   4144 C           8.7306   13.7043  106.8381 ca      1  CNT         0.000000
   4145 C           8.1245   14.0721  105.6101 ca      1  CNT         0.000000
   4146 C           6.8672   14.7267  105.6101 ca      1  CNT         0.000000
   4147 C           6.2183   15.0122  106.8381 ca      1  CNT         0.000000
   4148 C           4.8862   15.4970  106.8381 ca      1  CNT         0.000000
   4149 C           4.2056   15.6954  105.6101 ca      1  CNT         0.000000
   4150 C           2.8216   16.0022  105.6101 ca      1  CNT         0.000000
   4151 C           2.1209   16.1101  106.8381 ca      1  CNT         0.000000
   4152 C           0.7088   16.2336  106.8381 ca      1  CNT         0.000000
   4153 C          -0.0000   16.2491  105.6101 ca      1  CNT         0.000000
   4154 C          -1.4162   16.1873  105.6101 ca      1  CNT         0.000000
   4155 C          -2.1209   16.1101  106.8381 ca      1  CNT         0.000000
   4156 C          -3.5169   15.8639  106.8381 ca      1  CNT         0.000000
   4157 C          -4.2056   15.6954  105.6101 ca      1  CNT         0.000000
   4158 C          -5.5575   15.2691  105.6101 ca      1  CNT         0.000000
   4159 C          -6.2183   15.0122  106.8381 ca      1  CNT         0.000000
   4160 C          -7.5030   14.4131  106.8381 ca      1  CNT         0.000000
   4161 C          -8.1245   14.0721  105.6101 ca      1  CNT         0.000000
   4162 C          -9.3201   13.3105  105.6101 ca      1  CNT         0.000000
   4163 C          -9.8918   12.8913  106.8381 ca      1  CNT         0.000000
   4164 C         -10.9777   11.9801  106.8381 ca      1  CNT         0.000000
   4165 C         -11.4898   11.4898  105.6101 ca      1  CNT         0.000000
   4166 C         -12.4475   10.4447  105.6101 ca      1  CNT         0.000000
   4167 C         -12.8913    9.8918  106.8381 ca      1  CNT         0.000000
   4168 C         -13.7043    8.7306  106.8381 ca      1  CNT         0.000000
   4169 C         -14.0721    8.1245  105.6101 ca      1  CNT         0.000000
   4170 C         -14.7267    6.8672  105.6101 ca      1  CNT         0.000000
   4171 C         -15.0122    6.2183  106.8381 ca      1  CNT         0.000000
   4172 C         -15.4970    4.8862  106.8381 ca      1  CNT         0.000000
   4173 C         -15.6954    4.2056  105.6101 ca      1  CNT         0.000000
   4174 C         -16.0022    2.8216  105.6101 ca      1  CNT         0.000000
   4175 C         -16.1101    2.1209  106.8381 ca      1  CNT         0.000000
   4176 C         -16.2336    0.7088  106.8381 ca      1  CNT         0.000000
   4177 C         -16.2491   -0.0000  105.6101 ca      1  CNT         0.000000
   4178 C         -16.1873   -1.4162  105.6101 ca      1  CNT         0.000000
   4179 C         -16.1101   -2.1209  106.8381 ca      1  CNT         0.000000
   4180 C         -15.8639   -3.5169  106.8381 ca      1  CNT         0.000000
   4181 C         -15.6954   -4.2056  105.6101 ca      1  CNT         0.000000
   4182 C         -15.2691   -5.5575  105.6101 ca      1  CNT         0.000000
   4183 C         -15.0122   -6.2183  106.8381 ca      1  CNT         0.000000
   4184 C         -14.4131   -7.5030  106.8381 ca      1  CNT         0.000000
   4185 C         -14.0721   -8.1245  105.6101 ca      1  CNT         0.000000
   4186 C         -13.3105   -9.3201  105.6101 ca      1  CNT         0.000000
   4187 C         -12.8913   -9.8918  106.8381 ca      1  CNT         0.000000
   4188 C         -11.9801  -10.9777  106.8381 ca      1  CNT         0.000000
   4189 C         -11.4898  -11.4898  105.6101 ca      1  CNT         0.000000
   4190 C         -10.4447  -12.4475  105.6101 ca      1  CNT         0.000000
   4191 C          -9.8918  -12.8913  106.8381 ca      1  CNT         0.000000
   4192 C          -8.7306  -13.7043  106.8381 ca      1  CNT         0.000000
   4193 C          -8.1245  -14.0721  105.6101 ca      1  CNT         0.000000
   4194 C          -6.8672  -14.7267  105.6101 ca      1  CNT         0.000000
   4195 C          -6.2183  -15.0122  106.8381 ca      1  CNT         0.000000
   4196 C          -4.8862  -15.4970  106.8381 ca      1  CNT         0.000000
   4197 C          -4.2056  -15.6954  105.6101 ca      1  CNT         0.000000
   4198 C          -2.8216  -16.0022  105.6101 ca      1  CNT         0.000000
   4199 C          -2.1209  -16.1101  106.8381 ca      1  CNT         0.000000
   4200 C          -0.7088  -16.2336  106.8381 ca      1  CNT         0.000000
   4201 C           0.0000  -16.2491  105.6101 ca      1  CNT         0.000000
   4202 C           1.4162  -16.1873  105.6101 ca      1  CNT         0.000000
   4203 C           2.1209  -16.1101  106.8381 ca      1  CNT         0.000000
   4204 C           3.5169  -15.8639  106.8381 ca      1  CNT         0.000000
   4205 C           4.2056  -15.6954  105.6101 ca      1  CNT         0.000000
   4206 C           5.5575  -15.2691  105.6101 ca      1  CNT         0.000000
   4207 C           6.2183  -15.0122  106.8381 ca      1  CNT         0.000000
   4208 C           7.5030  -14.4131  106.8381 ca      1  CNT         0.000000
   4209 C           8.1245  -14.0721  105.6101 ca      1  CNT         0.000000
   4210 C           9.3201  -13.3105  105.6101 ca      1  CNT         0.000000
   4211 C           9.8918  -12.8913  106.8381 ca      1  CNT         0.000000
   4212 C          10.9777  -11.9801  106.8381 ca      1  CNT         0.000000
   4213 C          11.4898  -11.4898  105.6101 ca      1  CNT         0.000000
   4214 C          12.4475  -10.4447  105.6101 ca      1  CNT         0.000000
   4215 C          12.8913   -9.8918  106.8381 ca      1  CNT         0.000000
   4216 C          13.7043   -8.7306  106.8381 ca      1  CNT         0.000000
   4217 C          14.0721   -8.1245  105.6101 ca      1  CNT         0.000000
   4218 C          14.7267   -6.8672  105.6101 ca      1  CNT         0.000000
   4219 C          15.0122   -6.2183  106.8381 ca      1  CNT         0.000000
   4220 C          15.4970   -4.8862  106.8381 ca      1  CNT         0.000000
   4221 C          15.6954   -4.2056  105.6101 ca      1  CNT         0.000000
   4222 C          16.0022   -2.8216  105.6101 ca      1  CNT         0.000000
   4223 C          16.1101   -2.1209  106.8381 ca      1  CNT         0.000000
   4224 C          16.2336   -0.7088  106.8381 ca      1  CNT         0.000000
   4225 C          16.2491    0.0000  108.0661 ca      1  CNT         0.000000
   4226 C          16.1873    1.4162  108.0661 ca      1  CNT         0.000000
   4227 C          16.1101    2.1209  109.2941 ca      1  CNT         0.000000
   4228 C          15.8639    3.5169  109.2941 ca      1  CNT         0.000000
   4229 C          15.6954    4.2056  108.0661 ca      1  CNT         0.000000
   4230 C          15.2691    5.5575  108.0661 ca      1  CNT         0.000000
   4231 C          15.0122    6.2183  109.2941 ca      1  CNT         0.000000
   4232 C          14.4131    7.5030  109.2941 ca      1  CNT         0.000000
   4233 C          14.0721    8.1245  108.0661 ca      1  CNT         0.000000
   4234 C          13.3105    9.3201  108.0661 ca      1  CNT         0.000000
   4235 C          12.8913    9.8918  109.2941 ca      1  CNT         0.000000
   4236 C          11.9801   10.9777  109.2941 ca      1  CNT         0.000000
   4237 C          11.4898   11.4898  108.0661 ca      1  CNT         0.000000
   4238 C          10.4447   12.4475  108.0661 ca      1  CNT         0.000000
   4239 C           9.8918   12.8913  109.2941 ca      1  CNT         0.000000
   4240 C           8.7306   13.7043  109.2941 ca      1  CNT         0.000000
   4241 C           8.1245   14.0721  108.0661 ca      1  CNT         0.000000
   4242 C           6.8672   14.7267  108.0661 ca      1  CNT         0.000000
   4243 C           6.2183   15.0122  109.2941 ca      1  CNT         0.000000
   4244 C           4.8862   15.4970  109.2941 ca      1  CNT         0.000000
   4245 C           4.2056   15.6954  108.0661 ca      1  CNT         0.000000
   4246 C           2.8216   16.0022  108.0661 ca      1  CNT         0.000000
   4247 C           2.1209   16.1101  109.2941 ca      1  CNT         0.000000
   4248 C           0.7088   16.2336  109.2941 ca      1  CNT         0.000000
   4249 C          -0.0000   16.2491  108.0661 ca      1  CNT         0.000000
   4250 C          -1.4162   16.1873  108.0661 ca      1  CNT         0.000000
   4251 C          -2.1209   16.1101  109.2941 ca      1  CNT         0.000000
   4252 C          -3.5169   15.8639  109.2941 ca      1  CNT         0.000000
   4253 C          -4.2056   15.6954  108.0661 ca      1  CNT         0.000000
   4254 C          -5.5575   15.2691  108.0661 ca      1  CNT         0.000000
   4255 C          -6.2183   15.0122  109.2941 ca      1  CNT         0.000000
   4256 C          -7.5030   14.4131  109.2941 ca      1  CNT         0.000000
   4257 C          -8.1245   14.0721  108.0661 ca      1  CNT         0.000000
   4258 C          -9.3201   13.3105  108.0661 ca      1  CNT         0.000000
   4259 C          -9.8918   12.8913  109.2941 ca      1  CNT         0.000000
   4260 C         -10.9777   11.9801  109.2941 ca      1  CNT         0.000000
   4261 C         -11.4898   11.4898  108.0661 ca      1  CNT         0.000000
   4262 C         -12.4475   10.4447  108.0661 ca      1  CNT         0.000000
   4263 C         -12.8913    9.8918  109.2941 ca      1  CNT         0.000000
   4264 C         -13.7043    8.7306  109.2941 ca      1  CNT         0.000000
   4265 C         -14.0721    8.1245  108.0661 ca      1  CNT         0.000000
   4266 C         -14.7267    6.8672  108.0661 ca      1  CNT         0.000000
   4267 C         -15.0122    6.2183  109.2941 ca      1  CNT         0.000000
   4268 C         -15.4970    4.8862  109.2941 ca      1  CNT         0.000000
   4269 C         -15.6954    4.2056  108.0661 ca      1  CNT         0.000000
   4270 C         -16.0022    2.8216  108.0661 ca      1  CNT         0.000000
   4271 C         -16.1101    2.1209  109.2941 ca      1  CNT         0.000000
   4272 C         -16.2336    0.7088  109.2941 ca      1  CNT         0.000000
   4273 C         -16.2491   -0.0000  108.0661 ca      1  CNT         0.000000
   4274 C         -16.1873   -1.4162  108.0661 ca      1  CNT         0.000000
   4275 C         -16.1101   -2.1209  109.2941 ca      1  CNT         0.000000
   4276 C         -15.8639   -3.5169  109.2941 ca      1  CNT         0.000000
   4277 C         -15.6954   -4.2056  108.0661 ca      1  CNT         0.000000
   4278 C         -15.2691   -5.5575  108.0661 ca      1  CNT         0.000000
   4279 C         -15.0122   -6.2183  109.2941 ca      1  CNT         0.000000
   4280 C         -14.4131   -7.5030  109.2941 ca      1  CNT         0.000000
   4281 C         -14.0721   -8.1245  108.0661 ca      1  CNT         0.000000
   4282 C         -13.3105   -9.3201  108.0661 ca      1  CNT         0.000000
   4283 C         -12.8913   -9.8918  109.2941 ca      1  CNT         0.000000
   4284 C         -11.9801  -10.9777  109.2941 ca      1  CNT         0.000000
   4285 C         -11.4898  -11.4898  108.0661 ca      1  CNT         0.000000
   4286 C         -10.4447  -12.4475  108.0661 ca      1  CNT         0.000000
   4287 C          -9.8918  -12.8913  109.2941 ca      1  CNT         0.000000
   4288 C          -8.7306  -13.7043  109.2941 ca      1  CNT         0.000000
   4289 C          -8.1245  -14.0721  108.0661 ca      1  CNT         0.000000
   4290 C          -6.8672  -14.7267  108.0661 ca      1  CNT         0.000000
   4291 C          -6.2183  -15.0122  109.2941 ca      1  CNT         0.000000
   4292 C          -4.8862  -15.4970  109.2941 ca      1  CNT         0.000000
   4293 C          -4.2056  -15.6954  108.0661 ca      1  CNT         0.000000
   4294 C          -2.8216  -16.0022  108.0661 ca      1  CNT         0.000000
   4295 C          -2.1209  -16.1101  109.2941 ca      1  CNT         0.000000
   4296 C          -0.7088  -16.2336  109.2941 ca      1  CNT         0.000000
   4297 C           0.0000  -16.2491  108.0661 ca      1  CNT         0.000000
   4298 C           1.4162  -16.1873  108.0661 ca      1  CNT         0.000000
   4299 C           2.1209  -16.1101  109.2941 ca      1  CNT         0.000000
   4300 C           3.5169  -15.8639  109.2941 ca      1  CNT         0.000000
   4301 C           4.2056  -15.6954  108.0661 ca      1  CNT         0.000000
   4302 C           5.5575  -15.2691  108.0661 ca      1  CNT         0.000000
   4303 C           6.2183  -15.0122  109.2941 ca      1  CNT         0.000000
   4304 C           7.5030  -14.4131  109.2941 ca      1  CNT         0.000000
   4305 C           8.1245  -14.0721  108.0661 ca      1  CNT         0.000000
   4306 C           9.3201  -13.3105  108.0661 ca      1  CNT         0.000000
   4307 C           9.8918  -12.8913  109.2941 ca      1  CNT         0.000000
   4308 C          10.9777  -11.9801  109.2941 ca      1  CNT         0.000000
   4309 C          11.4898  -11.4898  108.0661 ca      1  CNT         0.000000
   4310 C          12.4475  -10.4447  108.0661 ca      1  CNT         0.000000
   4311 C          12.8913   -9.8918  109.2941 ca      1  CNT         0.000000
   4312 C          13.7043   -8.7306  109.2941 ca      1  CNT         0.000000
   4313 C          14.0721   -8.1245  108.0661 ca      1  CNT         0.000000
   4314 C          14.7267   -6.8672  108.0661 ca      1  CNT         0.000000
   4315 C          15.0122   -6.2183  109.2941 ca      1  CNT         0.000000
   4316 C          15.4970   -4.8862  109.2941 ca      1  CNT         0.000000
   4317 C          15.6954   -4.2056  108.0661 ca      1  CNT         0.000000
   4318 C          16.0022   -2.8216  108.0661 ca      1  CNT         0.000000
   4319 C          16.1101   -2.1209  109.2941 ca      1  CNT         0.000000
   4320 C          16.2336   -0.7088  109.2941 ca      1  CNT         0.000000
   4321 C          16.2491    0.0000  110.5222 ca      1  CNT         0.000000
   4322 C          16.1873    1.4162  110.5222 ca      1  CNT         0.000000
   4323 C          16.1101    2.1209  111.7502 ca      1  CNT         0.000000
   4324 C          15.8639    3.5169  111.7502 ca      1  CNT         0.000000
   4325 C          15.6954    4.2056  110.5222 ca      1  CNT         0.000000
   4326 C          15.2691    5.5575  110.5222 ca      1  CNT         0.000000
   4327 C          15.0122    6.2183  111.7502 ca      1  CNT         0.000000
   4328 C          14.4131    7.5030  111.7502 ca      1  CNT         0.000000
   4329 C          14.0721    8.1245  110.5222 ca      1  CNT         0.000000
   4330 C          13.3105    9.3201  110.5222 ca      1  CNT         0.000000
   4331 C          12.8913    9.8918  111.7502 ca      1  CNT         0.000000
   4332 C          11.9801   10.9777  111.7502 ca      1  CNT         0.000000
   4333 C          11.4898   11.4898  110.5222 ca      1  CNT         0.000000
   4334 C          10.4447   12.4475  110.5222 ca      1  CNT         0.000000
   4335 C           9.8918   12.8913  111.7502 ca      1  CNT         0.000000
   4336 C           8.7306   13.7043  111.7502 ca      1  CNT         0.000000
   4337 C           8.1245   14.0721  110.5222 ca      1  CNT         0.000000
   4338 C           6.8672   14.7267  110.5222 ca      1  CNT         0.000000
   4339 C           6.2183   15.0122  111.7502 ca      1  CNT         0.000000
   4340 C           4.8862   15.4970  111.7502 ca      1  CNT         0.000000
   4341 C           4.2056   15.6954  110.5222 ca      1  CNT         0.000000
   4342 C           2.8216   16.0022  110.5222 ca      1  CNT         0.000000
   4343 C           2.1209   16.1101  111.7502 ca      1  CNT         0.000000
   4344 C           0.7088   16.2336  111.7502 ca      1  CNT         0.000000
   4345 C          -0.0000   16.2491  110.5222 ca      1  CNT         0.000000
   4346 C          -1.4162   16.1873  110.5222 ca      1  CNT         0.000000
   4347 C          -2.1209   16.1101  111.7502 ca      1  CNT         0.000000
   4348 C          -3.5169   15.8639  111.7502 ca      1  CNT         0.000000
   4349 C          -4.2056   15.6954  110.5222 ca      1  CNT         0.000000
   4350 C          -5.5575   15.2691  110.5222 ca      1  CNT         0.000000
   4351 C          -6.2183   15.0122  111.7502 ca      1  CNT         0.000000
   4352 C          -7.5030   14.4131  111.7502 ca      1  CNT         0.000000
   4353 C          -8.1245   14.0721  110.5222 ca      1  CNT         0.000000
   4354 C          -9.3201   13.3105  110.5222 ca      1  CNT         0.000000
   4355 C          -9.8918   12.8913  111.7502 ca      1  CNT         0.000000
   4356 C         -10.9777   11.9801  111.7502 ca      1  CNT         0.000000
   4357 C         -11.4898   11.4898  110.5222 ca      1  CNT         0.000000
   4358 C         -12.4475   10.4447  110.5222 ca      1  CNT         0.000000
   4359 C         -12.8913    9.8918  111.7502 ca      1  CNT         0.000000
   4360 C         -13.7043    8.7306  111.7502 ca      1  CNT         0.000000
   4361 C         -14.0721    8.1245  110.5222 ca      1  CNT         0.000000
   4362 C         -14.7267    6.8672  110.5222 ca      1  CNT         0.000000
   4363 C         -15.0122    6.2183  111.7502 ca      1  CNT         0.000000
   4364 C         -15.4970    4.8862  111.7502 ca      1  CNT         0.000000
   4365 C         -15.6954    4.2056  110.5222 ca      1  CNT         0.000000
   4366 C         -16.0022    2.8216  110.5222 ca      1  CNT         0.000000
   4367 C         -16.1101    2.1209  111.7502 ca      1  CNT         0.000000
   4368 C         -16.2336    0.7088  111.7502 ca      1  CNT         0.000000
   4369 C         -16.2491   -0.0000  110.5222 ca      1  CNT         0.000000
   4370 C         -16.1873   -1.4162  110.5222 ca      1  CNT         0.000000
   4371 C         -16.1101   -2.1209  111.7502 ca      1  CNT         0.000000
   4372 C         -15.8639   -3.5169  111.7502 ca      1  CNT         0.000000
   4373 C         -15.6954   -4.2056  110.5222 ca      1  CNT         0.000000
   4374 C         -15.2691   -5.5575  110.5222 ca      1  CNT         0.000000
   4375 C         -15.0122   -6.2183  111.7502 ca      1  CNT         0.000000
   4376 C         -14.4131   -7.5030  111.7502 ca      1  CNT         0.000000
   4377 C         -14.0721   -8.1245  110.5222 ca      1  CNT         0.000000
   4378 C         -13.3105   -9.3201  110.5222 ca      1  CNT         0.000000
   4379 C         -12.8913   -9.8918  111.7502 ca      1  CNT         0.000000
   4380 C         -11.9801  -10.9777  111.7502 ca      1  CNT         0.000000
   4381 C         -11.4898  -11.4898  110.5222 ca      1  CNT         0.000000
   4382 C         -10.4447  -12.4475  110.5222 ca      1  CNT         0.000000
   4383 C          -9.8918  -12.8913  111.7502 ca      1  CNT         0.000000
   4384 C          -8.7306  -13.7043  111.7502 ca      1  CNT         0.000000
   4385 C          -8.1245  -14.0721  110.5222 ca      1  CNT         0.000000
   4386 C          -6.8672  -14.7267  110.5222 ca      1  CNT         0.000000
   4387 C          -6.2183  -15.0122  111.7502 ca      1  CNT         0.000000
   4388 C          -4.8862  -15.4970  111.7502 ca      1  CNT         0.000000
   4389 C          -4.2056  -15.6954  110.5222 ca      1  CNT         0.000000
   4390 C          -2.8216  -16.0022  110.5222 ca      1  CNT         0.000000
   4391 C          -2.1209  -16.1101  111.7502 ca      1  CNT         0.000000
   4392 C          -0.7088  -16.2336  111.7502 ca      1  CNT         0.000000
   4393 C           0.0000  -16.2491  110.5222 ca      1  CNT         0.000000
   4394 C           1.4162  -16.1873  110.5222 ca      1  CNT         0.000000
   4395 C           2.1209  -16.1101  111.7502 ca      1  CNT         0.000000
   4396 C           3.5169  -15.8639  111.7502 ca      1  CNT         0.000000
   4397 C           4.2056  -15.6954  110.5222 ca      1  CNT         0.000000
   4398 C           5.5575  -15.2691  110.5222 ca      1  CNT         0.000000
   4399 C           6.2183  -15.0122  111.7502 ca      1  CNT         0.000000
   4400 C           7.5030  -14.4131  111.7502 ca      1  CNT         0.000000
   4401 C           8.1245  -14.0721  110.5222 ca      1  CNT         0.000000
   4402 C           9.3201  -13.3105  110.5222 ca      1  CNT         0.000000
   4403 C           9.8918  -12.8913  111.7502 ca      1  CNT         0.000000
   4404 C          10.9777  -11.9801  111.7502 ca      1  CNT         0.000000
   4405 C          11.4898  -11.4898  110.5222 ca      1  CNT         0.000000
   4406 C          12.4475  -10.4447  110.5222 ca      1  CNT         0.000000
   4407 C          12.8913   -9.8918  111.7502 ca      1  CNT         0.000000
   4408 C          13.7043   -8.7306  111.7502 ca      1  CNT         0.000000
   4409 C          14.0721   -8.1245  110.5222 ca      1  CNT         0.000000
   4410 C          14.7267   -6.8672  110.5222 ca      1  CNT         0.000000
   4411 C          15.0122   -6.2183  111.7502 ca      1  CNT         0.000000
   4412 C          15.4970   -4.8862  111.7502 ca      1  CNT         0.000000
   4413 C          15.6954   -4.2056  110.5222 ca      1  CNT         0.000000
   4414 C          16.0022   -2.8216  110.5222 ca      1  CNT         0.000000
   4415 C          16.1101   -2.1209  111.7502 ca      1  CNT         0.000000
   4416 C          16.2336   -0.7088  111.7502 ca      1  CNT         0.000000
   4417 C          16.2491    0.0000  112.9782 ca      1  CNT         0.000000
   4418 C          16.1873    1.4162  112.9782 ca      1  CNT         0.000000
   4419 C          16.1101    2.1209  114.2062 ca      1  CNT         0.000000
   4420 C          15.8639    3.5169  114.2062 ca      1  CNT         0.000000
   4421 C          15.6954    4.2056  112.9782 ca      1  CNT         0.000000
   4422 C          15.2691    5.5575  112.9782 ca      1  CNT         0.000000
   4423 C          15.0122    6.2183  114.2062 ca      1  CNT         0.000000
   4424 C          14.4131    7.5030  114.2062 ca      1  CNT         0.000000
   4425 C          14.0721    8.1245  112.9782 ca      1  CNT         0.000000
   4426 C          13.3105    9.3201  112.9782 ca      1  CNT         0.000000
   4427 C          12.8913    9.8918  114.2062 ca      1  CNT         0.000000
   4428 C          11.9801   10.9777  114.2062 ca      1  CNT         0.000000
   4429 C          11.4898   11.4898  112.9782 ca      1  CNT         0.000000
   4430 C          10.4447   12.4475  112.9782 ca      1  CNT         0.000000
   4431 C           9.8918   12.8913  114.2062 ca      1  CNT         0.000000
   4432 C           8.7306   13.7043  114.2062 ca      1  CNT         0.000000
   4433 C           8.1245   14.0721  112.9782 ca      1  CNT         0.000000
   4434 C           6.8672   14.7267  112.9782 ca      1  CNT         0.000000
   4435 C           6.2183   15.0122  114.2062 ca      1  CNT         0.000000
   4436 C           4.8862   15.4970  114.2062 ca      1  CNT         0.000000
   4437 C           4.2056   15.6954  112.9782 ca      1  CNT         0.000000
   4438 C           2.8216   16.0022  112.9782 ca      1  CNT         0.000000
   4439 C           2.1209   16.1101  114.2062 ca      1  CNT         0.000000
   4440 C           0.7088   16.2336  114.2062 ca      1  CNT         0.000000
   4441 C          -0.0000   16.2491  112.9782 ca      1  CNT         0.000000
   4442 C          -1.4162   16.1873  112.9782 ca      1  CNT         0.000000
   4443 C          -2.1209   16.1101  114.2062 ca      1  CNT         0.000000
   4444 C          -3.5169   15.8639  114.2062 ca      1  CNT         0.000000
   4445 C          -4.2056   15.6954  112.9782 ca      1  CNT         0.000000
   4446 C          -5.5575   15.2691  112.9782 ca      1  CNT         0.000000
   4447 C          -6.2183   15.0122  114.2062 ca      1  CNT         0.000000
   4448 C          -7.5030   14.4131  114.2062 ca      1  CNT         0.000000
   4449 C          -8.1245   14.0721  112.9782 ca      1  CNT         0.000000
   4450 C          -9.3201   13.3105  112.9782 ca      1  CNT         0.000000
   4451 C          -9.8918   12.8913  114.2062 ca      1  CNT         0.000000
   4452 C         -10.9777   11.9801  114.2062 ca      1  CNT         0.000000
   4453 C         -11.4898   11.4898  112.9782 ca      1  CNT         0.000000
   4454 C         -12.4475   10.4447  112.9782 ca      1  CNT         0.000000
   4455 C         -12.8913    9.8918  114.2062 ca      1  CNT         0.000000
   4456 C         -13.7043    8.7306  114.2062 ca      1  CNT         0.000000
   4457 C         -14.0721    8.1245  112.9782 ca      1  CNT         0.000000
   4458 C         -14.7267    6.8672  112.9782 ca      1  CNT         0.000000
   4459 C         -15.0122    6.2183  114.2062 ca      1  CNT         0.000000
   4460 C         -15.4970    4.8862  114.2062 ca      1  CNT         0.000000
   4461 C         -15.6954    4.2056  112.9782 ca      1  CNT         0.000000
   4462 C         -16.0022    2.8216  112.9782 ca      1  CNT         0.000000
   4463 C         -16.1101    2.1209  114.2062 ca      1  CNT         0.000000
   4464 C         -16.2336    0.7088  114.2062 ca      1  CNT         0.000000
   4465 C         -16.2491   -0.0000  112.9782 ca      1  CNT         0.000000
   4466 C         -16.1873   -1.4162  112.9782 ca      1  CNT         0.000000
   4467 C         -16.1101   -2.1209  114.2062 ca      1  CNT         0.000000
   4468 C         -15.8639   -3.5169  114.2062 ca      1  CNT         0.000000
   4469 C         -15.6954   -4.2056  112.9782 ca      1  CNT         0.000000
   4470 C         -15.2691   -5.5575  112.9782 ca      1  CNT         0.000000
   4471 C         -15.0122   -6.2183  114.2062 ca      1  CNT         0.000000
   4472 C         -14.4131   -7.5030  114.2062 ca      1  CNT         0.000000
   4473 C         -14.0721   -8.1245  112.9782 ca      1  CNT         0.000000
   4474 C         -13.3105   -9.3201  112.9782 ca      1  CNT         0.000000
   4475 C         -12.8913   -9.8918  114.2062 ca      1  CNT         0.000000
   4476 C         -11.9801  -10.9777  114.2062 ca      1  CNT         0.000000
   4477 C         -11.4898  -11.4898  112.9782 ca      1  CNT         0.000000
   4478 C         -10.4447  -12.4475  112.9782 ca      1  CNT         0.000000
   4479 C          -9.8918  -12.8913  114.2062 ca      1  CNT         0.000000
   4480 C          -8.7306  -13.7043  114.2062 ca      1  CNT         0.000000
   4481 C          -8.1245  -14.0721  112.9782 ca      1  CNT         0.000000
   4482 C          -6.8672  -14.7267  112.9782 ca      1  CNT         0.000000
   4483 C          -6.2183  -15.0122  114.2062 ca      1  CNT         0.000000
   4484 C          -4.8862  -15.4970  114.2062 ca      1  CNT         0.000000
   4485 C          -4.2056  -15.6954  112.9782 ca      1  CNT         0.000000
   4486 C          -2.8216  -16.0022  112.9782 ca      1  CNT         0.000000
   4487 C          -2.1209  -16.1101  114.2062 ca      1  CNT         0.000000
   4488 C          -0.7088  -16.2336  114.2062 ca      1  CNT         0.000000
   4489 C           0.0000  -16.2491  112.9782 ca      1  CNT         0.000000
   4490 C           1.4162  -16.1873  112.9782 ca      1  CNT         0.000000
   4491 C           2.1209  -16.1101  114.2062 ca      1  CNT         0.000000
   4492 C           3.5169  -15.8639  114.2062 ca      1  CNT         0.000000
   4493 C           4.2056  -15.6954  112.9782 ca      1  CNT         0.000000
   4494 C           5.5575  -15.2691  112.9782 ca      1  CNT         0.000000
   4495 C           6.2183  -15.0122  114.2062 ca      1  CNT         0.000000
   4496 C           7.5030  -14.4131  114.2062 ca      1  CNT         0.000000
   4497 C           8.1245  -14.0721  112.9782 ca      1  CNT         0.000000
   4498 C           9.3201  -13.3105  112.9782 ca      1  CNT         0.000000
   4499 C           9.8918  -12.8913  114.2062 ca      1  CNT         0.000000
   4500 C          10.9777  -11.9801  114.2062 ca      1  CNT         0.000000
   4501 C          11.4898  -11.4898  112.9782 ca      1  CNT         0.000000
   4502 C          12.4475  -10.4447  112.9782 ca      1  CNT         0.000000
   4503 C          12.8913   -9.8918  114.2062 ca      1  CNT         0.000000
   4504 C          13.7043   -8.7306  114.2062 ca      1  CNT         0.000000
   4505 C          14.0721   -8.1245  112.9782 ca      1  CNT         0.000000
   4506 C          14.7267   -6.8672  112.9782 ca      1  CNT         0.000000
   4507 C          15.0122   -6.2183  114.2062 ca      1  CNT         0.000000
   4508 C          15.4970   -4.8862  114.2062 ca      1  CNT         0.000000
   4509 C          15.6954   -4.2056  112.9782 ca      1  CNT         0.000000
   4510 C          16.0022   -2.8216  112.9782 ca      1  CNT         0.000000
   4511 C          16.1101   -2.1209  114.2062 ca      1  CNT         0.000000
   4512 C          16.2336   -0.7088  114.2062 ca      1  CNT         0.000000
   4513 C          16.2491    0.0000  115.4343 ca      1  CNT         0.000000
   4514 C          16.1873    1.4162  115.4343 ca      1  CNT         0.000000
   4515 C          16.1101    2.1209  116.6623 ca      1  CNT         0.000000
   4516 C          15.8639    3.5169  116.6623 ca      1  CNT         0.000000
   4517 C          15.6954    4.2056  115.4343 ca      1  CNT         0.000000
   4518 C          15.2691    5.5575  115.4343 ca      1  CNT         0.000000
   4519 C          15.0122    6.2183  116.6623 ca      1  CNT         0.000000
   4520 C          14.4131    7.5030  116.6623 ca      1  CNT         0.000000
   4521 C          14.0721    8.1245  115.4343 ca      1  CNT         0.000000
   4522 C          13.3105    9.3201  115.4343 ca      1  CNT         0.000000
   4523 C          12.8913    9.8918  116.6623 ca      1  CNT         0.000000
   4524 C          11.9801   10.9777  116.6623 ca      1  CNT         0.000000
   4525 C          11.4898   11.4898  115.4343 ca      1  CNT         0.000000
   4526 C          10.4447   12.4475  115.4343 ca      1  CNT         0.000000
   4527 C           9.8918   12.8913  116.6623 ca      1  CNT         0.000000
   4528 C           8.7306   13.7043  116.6623 ca      1  CNT         0.000000
   4529 C           8.1245   14.0721  115.4343 ca      1  CNT         0.000000
   4530 C           6.8672   14.7267  115.4343 ca      1  CNT         0.000000
   4531 C           6.2183   15.0122  116.6623 ca      1  CNT         0.000000
   4532 C           4.8862   15.4970  116.6623 ca      1  CNT         0.000000
   4533 C           4.2056   15.6954  115.4343 ca      1  CNT         0.000000
   4534 C           2.8216   16.0022  115.4343 ca      1  CNT         0.000000
   4535 C           2.1209   16.1101  116.6623 ca      1  CNT         0.000000
   4536 C           0.7088   16.2336  116.6623 ca      1  CNT         0.000000
   4537 C          -0.0000   16.2491  115.4343 ca      1  CNT         0.000000
   4538 C          -1.4162   16.1873  115.4343 ca      1  CNT         0.000000
   4539 C          -2.1209   16.1101  116.6623 ca      1  CNT         0.000000
   4540 C          -3.5169   15.8639  116.6623 ca      1  CNT         0.000000
   4541 C          -4.2056   15.6954  115.4343 ca      1  CNT         0.000000
   4542 C          -5.5575   15.2691  115.4343 ca      1  CNT         0.000000
   4543 C          -6.2183   15.0122  116.6623 ca      1  CNT         0.000000
   4544 C          -7.5030   14.4131  116.6623 ca      1  CNT         0.000000
   4545 C          -8.1245   14.0721  115.4343 ca      1  CNT         0.000000
   4546 C          -9.3201   13.3105  115.4343 ca      1  CNT         0.000000
   4547 C          -9.8918   12.8913  116.6623 ca      1  CNT         0.000000
   4548 C         -10.9777   11.9801  116.6623 ca      1  CNT         0.000000
   4549 C         -11.4898   11.4898  115.4343 ca      1  CNT         0.000000
   4550 C         -12.4475   10.4447  115.4343 ca      1  CNT         0.000000
   4551 C         -12.8913    9.8918  116.6623 ca      1  CNT         0.000000
   4552 C         -13.7043    8.7306  116.6623 ca      1  CNT         0.000000
   4553 C         -14.0721    8.1245  115.4343 ca      1  CNT         0.000000
   4554 C         -14.7267    6.8672  115.4343 ca      1  CNT         0.000000
   4555 C         -15.0122    6.2183  116.6623 ca      1  CNT         0.000000
   4556 C         -15.4970    4.8862  116.6623 ca      1  CNT         0.000000
   4557 C         -15.6954    4.2056  115.4343 ca      1  CNT         0.000000
   4558 C         -16.0022    2.8216  115.4343 ca      1  CNT         0.000000
   4559 C         -16.1101    2.1209  116.6623 ca      1  CNT         0.000000
   4560 C         -16.2336    0.7088  116.6623 ca      1  CNT         0.000000
   4561 C         -16.2491   -0.0000  115.4343 ca      1  CNT         0.000000
   4562 C         -16.1873   -1.4162  115.4343 ca      1  CNT         0.000000
   4563 C         -16.1101   -2.1209  116.6623 ca      1  CNT         0.000000
   4564 C         -15.8639   -3.5169  116.6623 ca      1  CNT         0.000000
   4565 C         -15.6954   -4.2056  115.4343 ca      1  CNT         0.000000
   4566 C         -15.2691   -5.5575  115.4343 ca      1  CNT         0.000000
   4567 C         -15.0122   -6.2183  116.6623 ca      1  CNT         0.000000
   4568 C         -14.4131   -7.5030  116.6623 ca      1  CNT         0.000000
   4569 C         -14.0721   -8.1245  115.4343 ca      1  CNT         0.000000
   4570 C         -13.3105   -9.3201  115.4343 ca      1  CNT         0.000000
   4571 C         -12.8913   -9.8918  116.6623 ca      1  CNT         0.000000
   4572 C         -11.9801  -10.9777  116.6623 ca      1  CNT         0.000000
   4573 C         -11.4898  -11.4898  115.4343 ca      1  CNT         0.000000
   4574 C         -10.4447  -12.4475  115.4343 ca      1  CNT         0.000000
   4575 C          -9.8918  -12.8913  116.6623 ca      1  CNT         0.000000
   4576 C          -8.7306  -13.7043  116.6623 ca      1  CNT         0.000000
   4577 C          -8.1245  -14.0721  115.4343 ca      1  CNT         0.000000
   4578 C          -6.8672  -14.7267  115.4343 ca      1  CNT         0.000000
   4579 C          -6.2183  -15.0122  116.6623 ca      1  CNT         0.000000
   4580 C          -4.8862  -15.4970  116.6623 ca      1  CNT         0.000000
   4581 C          -4.2056  -15.6954  115.4343 ca      1  CNT         0.000000
   4582 C          -2.8216  -16.0022  115.4343 ca      1  CNT         0.000000
   4583 C          -2.1209  -16.1101  116.6623 ca      1  CNT         0.000000
   4584 C          -0.7088  -16.2336  116.6623 ca      1  CNT         0.000000
   4585 C           0.0000  -16.2491  115.4343 ca      1  CNT         0.000000
   4586 C           1.4162  -16.1873  115.4343 ca      1  CNT         0.000000
   4587 C           2.1209  -16.1101  116.6623 ca      1  CNT         0.000000
   4588 C           3.5169  -15.8639  116.6623 ca      1  CNT         0.000000
   4589 C           4.2056  -15.6954  115.4343 ca      1  CNT         0.000000
   4590 C           5.5575  -15.2691  115.4343 ca      1  CNT         0.000000
   4591 C           6.2183  -15.0122  116.6623 ca      1  CNT         0.000000
   4592 C           7.5030  -14.4131  116.6623 ca      1  CNT         0.000000
   4593 C           8.1245  -14.0721  115.4343 ca      1  CNT         0.000000
   4594 C           9.3201  -13.3105  115.4343 ca      1  CNT         0.000000
   4595 C           9.8918  -12.8913  116.6623 ca      1  CNT         0.000000
   4596 C          10.9777  -11.9801  116.6623 ca      1  CNT         0.000000
   4597 C          11.4898  -11.4898  115.4343 ca      1  CNT         0.000000
   4598 C          12.4475  -10.4447  115.4343 ca      1  CNT         0.000000
   4599 C          12.8913   -9.8918  116.6623 ca      1  CNT         0.000000
   4600 C          13.7043   -8.7306  116.6623 ca      1  CNT         0.000000
   4601 C          14.0721   -8.1245  115.4343 ca      1  CNT         0.000000
   4602 C          14.7267   -6.8672  115.4343 ca      1  CNT         0.000000
   4603 C          15.0122   -6.2183  116.6623 ca      1  CNT         0.000000
   4604 C          15.4970   -4.8862  116.6623 ca      1  CNT         0.000000
   4605 C          15.6954   -4.2056  115.4343 ca      1  CNT         0.000000
   4606 C          16.0022   -2.8216  115.4343 ca      1  CNT         0.000000
   4607 C          16.1101   -2.1209  116.6623 ca      1  CNT         0.000000
   4608 C          16.2336   -0.7088  116.6623 ca      1  CNT         0.000000
   4609 C          16.2491    0.0000  117.8903 ca      1  CNT         0.000000
   4610 C          16.1873    1.4162  117.8903 ca      1  CNT         0.000000
   4611 C          16.1101    2.1209  119.1183 ca      1  CNT         0.000000
   4612 C          15.8639    3.5169  119.1183 ca      1  CNT         0.000000
   4613 C          15.6954    4.2056  117.8903 ca      1  CNT         0.000000
   4614 C          15.2691    5.5575  117.8903 ca      1  CNT         0.000000
   4615 C          15.0122    6.2183  119.1183 ca      1  CNT         0.000000
   4616 C          14.4131    7.5030  119.1183 ca      1  CNT         0.000000
   4617 C          14.0721    8.1245  117.8903 ca      1  CNT         0.000000
   4618 C          13.3105    9.3201  117.8903 ca      1  CNT         0.000000
   4619 C          12.8913    9.8918  119.1183 ca      1  CNT         0.000000
   4620 C          11.9801   10.9777  119.1183 ca      1  CNT         0.000000
   4621 C          11.4898   11.4898  117.8903 ca      1  CNT         0.000000
   4622 C          10.4447   12.4475  117.8903 ca      1  CNT         0.000000
   4623 C           9.8918   12.8913  119.1183 ca      1  CNT         0.000000
   4624 C           8.7306   13.7043  119.1183 ca      1  CNT         0.000000
   4625 C           8.1245   14.0721  117.8903 ca      1  CNT         0.000000
   4626 C           6.8672   14.7267  117.8903 ca      1  CNT         0.000000
   4627 C           6.2183   15.0122  119.1183 ca      1  CNT         0.000000
   4628 C           4.8862   15.4970  119.1183 ca      1  CNT         0.000000
   4629 C           4.2056   15.6954  117.8903 ca      1  CNT         0.000000
   4630 C           2.8216   16.0022  117.8903 ca      1  CNT         0.000000
   4631 C           2.1209   16.1101  119.1183 ca      1  CNT         0.000000
   4632 C           0.7088   16.2336  119.1183 ca      1  CNT         0.000000
   4633 C          -0.0000   16.2491  117.8903 ca      1  CNT         0.000000
   4634 C          -1.4162   16.1873  117.8903 ca      1  CNT         0.000000
   4635 C          -2.1209   16.1101  119.1183 ca      1  CNT         0.000000
   4636 C          -3.5169   15.8639  119.1183 ca      1  CNT         0.000000
   4637 C          -4.2056   15.6954  117.8903 ca      1  CNT         0.000000
   4638 C          -5.5575   15.2691  117.8903 ca      1  CNT         0.000000
   4639 C          -6.2183   15.0122  119.1183 ca      1  CNT         0.000000
   4640 C          -7.5030   14.4131  119.1183 ca      1  CNT         0.000000
   4641 C          -8.1245   14.0721  117.8903 ca      1  CNT         0.000000
   4642 C          -9.3201   13.3105  117.8903 ca      1  CNT         0.000000
   4643 C          -9.8918   12.8913  119.1183 ca      1  CNT         0.000000
   4644 C         -10.9777   11.9801  119.1183 ca      1  CNT         0.000000
   4645 C         -11.4898   11.4898  117.8903 ca      1  CNT         0.000000
   4646 C         -12.4475   10.4447  117.8903 ca      1  CNT         0.000000
   4647 C         -12.8913    9.8918  119.1183 ca      1  CNT         0.000000
   4648 C         -13.7043    8.7306  119.1183 ca      1  CNT         0.000000
   4649 C         -14.0721    8.1245  117.8903 ca      1  CNT         0.000000
   4650 C         -14.7267    6.8672  117.8903 ca      1  CNT         0.000000
   4651 C         -15.0122    6.2183  119.1183 ca      1  CNT         0.000000
   4652 C         -15.4970    4.8862  119.1183 ca      1  CNT         0.000000
   4653 C         -15.6954    4.2056  117.8903 ca      1  CNT         0.000000
   4654 C         -16.0022    2.8216  117.8903 ca      1  CNT         0.000000
   4655 C         -16.1101    2.1209  119.1183 ca      1  CNT         0.000000
   4656 C         -16.2336    0.7088  119.1183 ca      1  CNT         0.000000
   4657 C         -16.2491   -0.0000  117.8903 ca      1  CNT         0.000000
   4658 C         -16.1873   -1.4162  117.8903 ca      1  CNT         0.000000
   4659 C         -16.1101   -2.1209  119.1183 ca      1  CNT         0.000000
   4660 C         -15.8639   -3.5169  119.1183 ca      1  CNT         0.000000
   4661 C         -15.6954   -4.2056  117.8903 ca      1  CNT         0.000000
   4662 C         -15.2691   -5.5575  117.8903 ca      1  CNT         0.000000
   4663 C         -15.0122   -6.2183  119.1183 ca      1  CNT         0.000000
   4664 C         -14.4131   -7.5030  119.1183 ca      1  CNT         0.000000
   4665 C         -14.0721   -8.1245  117.8903 ca      1  CNT         0.000000
   4666 C         -13.3105   -9.3201  117.8903 ca      1  CNT         0.000000
   4667 C         -12.8913   -9.8918  119.1183 ca      1  CNT         0.000000
   4668 C         -11.9801  -10.9777  119.1183 ca      1  CNT         0.000000
   4669 C         -11.4898  -11.4898  117.8903 ca      1  CNT         0.000000
   4670 C         -10.4447  -12.4475  117.8903 ca      1  CNT         0.000000
   4671 C          -9.8918  -12.8913  119.1183 ca      1  CNT         0.000000
   4672 C          -8.7306  -13.7043  119.1183 ca      1  CNT         0.000000
   4673 C          -8.1245  -14.0721  117.8903 ca      1  CNT         0.000000
   4674 C          -6.8672  -14.7267  117.8903 ca      1  CNT         0.000000
   4675 C          -6.2183  -15.0122  119.1183 ca      1  CNT         0.000000
   4676 C          -4.8862  -15.4970  119.1183 ca      1  CNT         0.000000
   4677 C          -4.2056  -15.6954  117.8903 ca      1  CNT         0.000000
   4678 C          -2.8216  -16.0022  117.8903 ca      1  CNT         0.000000
   4679 C          -2.1209  -16.1101  119.1183 ca      1  CNT         0.000000
   4680 C          -0.7088  -16.2336  119.1183 ca      1  CNT         0.000000
   4681 C           0.0000  -16.2491  117.8903 ca      1  CNT         0.000000
   4682 C           1.4162  -16.1873  117.8903 ca      1  CNT         0.000000
   4683 C           2.1209  -16.1101  119.1183 ca      1  CNT         0.000000
   4684 C           3.5169  -15.8639  119.1183 ca      1  CNT         0.000000
   4685 C           4.2056  -15.6954  117.8903 ca      1  CNT         0.000000
   4686 C           5.5575  -15.2691  117.8903 ca      1  CNT         0.000000
   4687 C           6.2183  -15.0122  119.1183 ca      1  CNT         0.000000
   4688 C           7.5030  -14.4131  119.1183 ca      1  CNT         0.000000
   4689 C           8.1245  -14.0721  117.8903 ca      1  CNT         0.000000
   4690 C           9.3201  -13.3105  117.8903 ca      1  CNT         0.000000
   4691 C           9.8918  -12.8913  119.1183 ca      1  CNT         0.000000
   4692 C          10.9777  -11.9801  119.1183 ca      1  CNT         0.000000
   4693 C          11.4898  -11.4898  117.8903 ca      1  CNT         0.000000
   4694 C          12.4475  -10.4447  117.8903 ca      1  CNT         0.000000
   4695 C          12.8913   -9.8918  119.1183 ca      1  CNT         0.000000
   4696 C          13.7043   -8.7306  119.1183 ca      1  CNT         0.000000
   4697 C          14.0721   -8.1245  117.8903 ca      1  CNT         0.000000
   4698 C          14.7267   -6.8672  117.8903 ca      1  CNT         0.000000
   4699 C          15.0122   -6.2183  119.1183 ca      1  CNT         0.000000
   4700 C          15.4970   -4.8862  119.1183 ca      1  CNT         0.000000
   4701 C          15.6954   -4.2056  117.8903 ca      1  CNT         0.000000
   4702 C          16.0022   -2.8216  117.8903 ca      1  CNT         0.000000
   4703 C          16.1101   -2.1209  119.1183 ca      1  CNT         0.000000
   4704 C          16.2336   -0.7088  119.1183 ca      1  CNT         0.000000
@<TRIPOS>BOND
    1     1    96  1
    2     1     2  1
    3     2     3  1
    4     3     4  1
    5     3    98  1
    6     4     5  1
    7     4   101  1
    8     5     6  1
    9     6     7  1
   10     7     8  1
   11     7   102  1
   12     8   105  1
   13     8     9  1
   14     9    10  1
   15    10    11  1
   16    11   106  1
   17    11    12  1
   18    12    13  1
   19    12   109  1
   20    13    14  1
   21    14    15  1
   22    15    16  1
   23    15   110  1
   24    16   113  1
   25    16    17  1
   26    17    18  1
   27    18    19  1
   28    19   114  1
   29    19    20  1
   30    20    21  1
   31    20   117  1
   32    21    22  1
   33    22    23  1
   34    23   118  1
   35    23    24  1
   36    24    25  1
   37    24   121  1
   38    25    26  1
   39    26    27  1
   40    27    28  1
   41    27   122  1
   42    28   125  1
   43    28    29  1
   44    29    30  1
   45    30    31  1
   46    31    32  1
   47    31   126  1
   48    32   129  1
   49    32    33  1
   50    33    34  1
   51    34    35  1
   52    35   130  1
   53    35    36  1
   54    36    37  1
   55    36   133  1
   56    37    38  1
   57    38    39  1
   58    39    40  1
   59    39   134  1
   60    40    41  1
   61    40   137  1
   62    41    42  1
   63    42    43  1
   64    43    44  1
   65    43   138  1
   66    44    45  1
   67    44   141  1
   68    45    46  1
   69    46    47  1
   70    47    48  1
   71    47   142  1
   72    48    49  1
   73    48   145  1
   74    49    50  1
   75    50    51  1
   76    51    52  1
   77    51   146  1
   78    52    53  1
   79    52   149  1
   80    53    54  1
   81    54    55  1
   82    55    56  1
   83    55   150  1
   84    56    57  1
   85    56   153  1
   86    57    58  1
   87    58    59  1
   88    59   154  1
   89    59    60  1
   90    60    61  1
   91    60   157  1
   92    61    62  1
   93    62    63  1
   94    63    64  1
   95    63   158  1
   96    64    65  1
   97    64   161  1
   98    65    66  1
   99    66    67  1
  100    67    68  1
  101    67   162  1
  102    68    69  1
  103    68   165  1
  104    69    70  1
  105    70    71  1
  106    71    72  1
  107    71   166  1
  108    72    73  1
  109    72   169  1
  110    73    74  1
  111    74    75  1
  112    75    76  1
  113    75   170  1
  114    76    77  1
  115    76   173  1
  116    77    78  1
  117    78    79  1
  118    79    80  1
  119    79   174  1
  120    80    81  1
  121    80   177  1
  122    81    82  1
  123    82    83  1
  124    83   178  1
  125    83    84  1
  126    84    85  1
  127    84   181  1
  128    85    86  1
  129    86    87  1
  130    87    88  1
  131    87   182  1
  132    88    89  1
  133    88   185  1
  134    89    90  1
  135    90    91  1
  136    91    92  1
  137    91   186  1
  138    92    93  1
  139    92   189  1
  140    93    94  1
  141    94    95  1
  142    95    96  1
  143    95   190  1
  144    96    97  1
  145    97   192  1
  146    97    98  1
  147    98    99  1
  148    99   100  1
  149    99   194  1
  150   100   101  1
  151   100   197  1
  152   101   102  1
  153   102   103  1
  154   103   104  1
  155   103   198  1
  156   104   201  1
  157   104   105  1
  158   105   106  1
  159   106   107  1
  160   107   202  1
  161   107   108  1
  162   108   109  1
  163   108   205  1
  164   109   110  1
  165   110   111  1
  166   111   112  1
  167   111   206  1
  168   112   209  1
  169   112   113  1
  170   113   114  1
  171   114   115  1
  172   115   210  1
  173   115   116  1
  174   116   117  1
  175   116   213  1
  176   117   118  1
  177   118   119  1
  178   119   214  1
  179   119   120  1
  180   120   121  1
  181   120   217  1
  182   121   122  1
  183   122   123  1
  184   123   124  1
  185   123   218  1
  186   124   221  1
  187   124   125  1
  188   125   126  1
  189   126   127  1
  190   127   128  1
  191   127   222  1
  192   128   225  1
  193   128   129  1
  194   129   130  1
  195   130   131  1
  196   131   226  1
  197   131   132  1
  198   132   133  1
  199   132   229  1
  200   133   134  1
  201   134   135  1
  202   135   136  1
  203   135   230  1
  204   136   137  1
  205   136   233  1
  206   137   138  1
  207   138   139  1
  208   139   140  1
  209   139   234  1
  210   140   141  1
  211   140   237  1
  212   141   142  1
  213   142   143  1
  214   143   144  1
  215   143   238  1
  216   144   145  1
  217   144   241  1
  218   145   146  1
  219   146   147  1
  220   147   148  1
  221   147   242  1
  222   148   149  1
  223   148   245  1
  224   149   150  1
  225   150   151  1
  226   151   152  1
  227   151   246  1
  228   152   153  1
  229   152   249  1
  230   153   154  1
  231   154   155  1
  232   155   250  1
  233   155   156  1
  234   156   157  1
  235   156   253  1
  236   157   158  1
  237   158   159  1
  238   159   160  1
  239   159   254  1
  240   160   161  1
  241   160   257  1
  242   161   162  1
  243   162   163  1
  244   163   164  1
  245   163   258  1
  246   164   165  1
  247   164   261  1
  248   165   166  1
  249   166   167  1
  250   167   168  1
  251   167   262  1
  252   168   169  1
  253   168   265  1
  254   169   170  1
  255   170   171  1
  256   171   172  1
  257   171   266  1
  258   172   173  1
  259   172   269  1
  260   173   174  1
  261   174   175  1
  262   175   176  1
  263   175   270  1
  264   176   177  1
  265   176   273  1
  266   177   178  1
  267   178   179  1
  268   179   274  1
  269   179   180  1
  270   180   181  1
  271   180   277  1
  272   181   182  1
  273   182   183  1
  274   183   184  1
  275   183   278  1
  276   184   185  1
  277   184   281  1
  278   185   186  1
  279   186   187  1
  280   187   188  1
  281   187   282  1
  282   188   189  1
  283   188   285  1
  284   189   190  1
  285   190   191  1
  286   191   192  1
  287   191   286  1
  288   192   193  1
  289   193   194  1
  290   193   288  1
  291   194   195  1
  292   195   290  1
  293   195   196  1
  294   196   197  1
  295   196   293  1
  296   197   198  1
  297   198   199  1
  298   199   294  1
  299   199   200  1
  300   200   201  1
  301   200   297  1
  302   201   202  1
  303   202   203  1
  304   203   298  1
  305   203   204  1
  306   204   205  1
  307   204   301  1
  308   205   206  1
  309   206   207  1
  310   207   208  1
  311   207   302  1
  312   208   209  1
  313   208   305  1
  314   209   210  1
  315   210   211  1
  316   211   306  1
  317   211   212  1
  318   212   213  1
  319   212   309  1
  320   213   214  1
  321   214   215  1
  322   215   310  1
  323   215   216  1
  324   216   217  1
  325   216   313  1
  326   217   218  1
  327   218   219  1
  328   219   220  1
  329   219   314  1
  330   220   221  1
  331   220   317  1
  332   221   222  1
  333   222   223  1
  334   223   224  1
  335   223   318  1
  336   224   225  1
  337   224   321  1
  338   225   226  1
  339   226   227  1
  340   227   322  1
  341   227   228  1
  342   228   229  1
  343   228   325  1
  344   229   230  1
  345   230   231  1
  346   231   232  1
  347   231   326  1
  348   232   233  1
  349   232   329  1
  350   233   234  1
  351   234   235  1
  352   235   236  1
  353   235   330  1
  354   236   237  1
  355   236   333  1
  356   237   238  1
  357   238   239  1
  358   239   240  1
  359   239   334  1
  360   240   241  1
  361   240   337  1
  362   241   242  1
  363   242   243  1
  364   243   244  1
  365   243   338  1
  366   244   245  1
  367   244   341  1
  368   245   246  1
  369   246   247  1
  370   247   248  1
  371   247   342  1
  372   248   249  1
  373   248   345  1
  374   249   250  1
  375   250   251  1
  376   251   346  1
  377   251   252  1
  378   252   253  1
  379   252   349  1
  380   253   254  1
  381   254   255  1
  382   255   256  1
  383   255   350  1
  384   256   257  1
  385   256   353  1
  386   257   258  1
  387   258   259  1
  388   259   354  1
  389   259   260  1
  390   260   261  1
  391   260   357  1
  392   261   262  1
  393   262   263  1
  394   263   358  1
  395   263   264  1
  396   264   265  1
  397   264   361  1
  398   265   266  1
  399   266   267  1
  400   267   268  1
  401   267   362  1
  402   268   269  1
  403   268   365  1
  404   269   270  1
  405   270   271  1
  406   271   272  1
  407   271   366  1
  408   272   273  1
  409   272   369  1
  410   273   274  1
  411   274   275  1
  412   275   370  1
  413   275   276  1
  414   276   277  1
  415   276   373  1
  416   277   278  1
  417   278   279  1
  418   279   374  1
  419   279   280  1
  420   280   281  1
  421   280   377  1
  422   281   282  1
  423   282   283  1
  424   283   378  1
  425   283   284  1
  426   284   285  1
  427   284   381  1
  428   285   286  1
  429   286   287  1
  430   287   382  1
  431   287   288  1
  432   288   289  1
  433   289   290  1
  434   289   384  1
  435   290   291  1
  436   291   386  1
  437   291   292  1
  438   292   293  1
  439   292   389  1
  440   293   294  1
  441   294   295  1
  442   295   390  1
  443   295   296  1
  444   296   297  1
  445   296   393  1
  446   297   298  1
  447   298   299  1
  448   299   394  1
  449   299   300  1
  450   300   301  1
  451   300   397  1
  452   301   302  1
  453   302   303  1
  454   303   304  1
  455   303   398  1
  456   304   305  1
  457   304   401  1
  458   305   306  1
  459   306   307  1
  460   307   402  1
  461   307   308  1
  462   308   309  1
  463   308   405  1
  464   309   310  1
  465   310   311  1
  466   311   406  1
  467   311   312  1
  468   312   313  1
  469   312   409  1
  470   313   314  1
  471   314   315  1
  472   315   316  1
  473   315   410  1
  474   316   317  1
  475   316   413  1
  476   317   318  1
  477   318   319  1
  478   319   320  1
  479   319   414  1
  480   320   321  1
  481   320   417  1
  482   321   322  1
  483   322   323  1
  484   323   418  1
  485   323   324  1
  486   324   325  1
  487   324   421  1
  488   325   326  1
  489   326   327  1
  490   327   328  1
  491   327   422  1
  492   328   329  1
  493   328   425  1
  494   329   330  1
  495   330   331  1
  496   331   332  1
  497   331   426  1
  498   332   333  1
  499   332   429  1
  500   333   334  1
  501   334   335  1
  502   335   336  1
  503   335   430  1
  504   336   337  1
  505   336   433  1
  506   337   338  1
  507   338   339  1
  508   339   340  1
  509   339   434  1
  510   340   341  1
  511   340   437  1
  512   341   342  1
  513   342   343  1
  514   343   344  1
  515   343   438  1
  516   344   345  1
  517   344   441  1
  518   345   346  1
  519   346   347  1
  520   347   442  1
  521   347   348  1
  522   348   349  1
  523   348   445  1
  524   349   350  1
  525   350   351  1
  526   351   352  1
  527   351   446  1
  528   352   353  1
  529   352   449  1
  530   353   354  1
  531   354   355  1
  532   355   450  1
  533   355   356  1
  534   356   357  1
  535   356   453  1
  536   357   358  1
  537   358   359  1
  538   359   454  1
  539   359   360  1
  540   360   361  1
  541   360   457  1
  542   361   362  1
  543   362   363  1
  544   363   364  1
  545   363   458  1
  546   364   365  1
  547   364   461  1
  548   365   366  1
  549   366   367  1
  550   367   368  1
  551   367   462  1
  552   368   369  1
  553   368   465  1
  554   369   370  1
  555   370   371  1
  556   371   466  1
  557   371   372  1
  558   372   373  1
  559   372   469  1
  560   373   374  1
  561   374   375  1
  562   375   470  1
  563   375   376  1
  564   376   377  1
  565   376   473  1
  566   377   378  1
  567   378   379  1
  568   379   474  1
  569   379   380  1
  570   380   381  1
  571   380   477  1
  572   381   382  1
  573   382   383  1
  574   383   478  1
  575   383   384  1
  576   384   385  1
  577   385   386  1
  578   385   480  1
  579   386   387  1
  580   387   388  1
  581   387   482  1
  582   388   389  1
  583   388   485  1
  584   389   390  1
  585   390   391  1
  586   391   392  1
  587   391   486  1
  588   392   489  1
  589   392   393  1
  590   393   394  1
  591   394   395  1
  592   395   490  1
  593   395   396  1
  594   396   397  1
  595   396   493  1
  596   397   398  1
  597   398   399  1
  598   399   400  1
  599   399   494  1
  600   400   497  1
  601   400   401  1
  602   401   402  1
  603   402   403  1
  604   403   498  1
  605   403   404  1
  606   404   405  1
  607   404   501  1
  608   405   406  1
  609   406   407  1
  610   407   502  1
  611   407   408  1
  612   408   409  1
  613   408   505  1
  614   409   410  1
  615   410   411  1
  616   411   412  1
  617   411   506  1
  618   412   509  1
  619   412   413  1
  620   413   414  1
  621   414   415  1
  622   415   416  1
  623   415   510  1
  624   416   513  1
  625   416   417  1
  626   417   418  1
  627   418   419  1
  628   419   514  1
  629   419   420  1
  630   420   421  1
  631   420   517  1
  632   421   422  1
  633   422   423  1
  634   423   424  1
  635   423   518  1
  636   424   425  1
  637   424   521  1
  638   425   426  1
  639   426   427  1
  640   427   428  1
  641   427   522  1
  642   428   429  1
  643   428   525  1
  644   429   430  1
  645   430   431  1
  646   431   432  1
  647   431   526  1
  648   432   433  1
  649   432   529  1
  650   433   434  1
  651   434   435  1
  652   435   436  1
  653   435   530  1
  654   436   437  1
  655   436   533  1
  656   437   438  1
  657   438   439  1
  658   439   440  1
  659   439   534  1
  660   440   441  1
  661   440   537  1
  662   441   442  1
  663   442   443  1
  664   443   538  1
  665   443   444  1
  666   444   445  1
  667   444   541  1
  668   445   446  1
  669   446   447  1
  670   447   448  1
  671   447   542  1
  672   448   449  1
  673   448   545  1
  674   449   450  1
  675   450   451  1
  676   451   452  1
  677   451   546  1
  678   452   453  1
  679   452   549  1
  680   453   454  1
  681   454   455  1
  682   455   456  1
  683   455   550  1
  684   456   457  1
  685   456   553  1
  686   457   458  1
  687   458   459  1
  688   459   460  1
  689   459   554  1
  690   460   461  1
  691   460   557  1
  692   461   462  1
  693   462   463  1
  694   463   464  1
  695   463   558  1
  696   464   465  1
  697   464   561  1
  698   465   466  1
  699   466   467  1
  700   467   562  1
  701   467   468  1
  702   468   469  1
  703   468   565  1
  704   469   470  1
  705   470   471  1
  706   471   472  1
  707   471   566  1
  708   472   473  1
  709   472   569  1
  710   473   474  1
  711   474   475  1
  712   475   476  1
  713   475   570  1
  714   476   477  1
  715   476   573  1
  716   477   478  1
  717   478   479  1
  718   479   480  1
  719   479   574  1
  720   480   481  1
  721   481   576  1
  722   481   482  1
  723   482   483  1
  724   483   484  1
  725   483   578  1
  726   484   485  1
  727   484   581  1
  728   485   486  1
  729   486   487  1
  730   487   488  1
  731   487   582  1
  732   488   585  1
  733   488   489  1
  734   489   490  1
  735   490   491  1
  736   491   586  1
  737   491   492  1
  738   492   493  1
  739   492   589  1
  740   493   494  1
  741   494   495  1
  742   495   496  1
  743   495   590  1
  744   496   593  1
  745   496   497  1
  746   497   498  1
  747   498   499  1
  748   499   594  1
  749   499   500  1
  750   500   501  1
  751   500   597  1
  752   501   502  1
  753   502   503  1
  754   503   598  1
  755   503   504  1
  756   504   505  1
  757   504   601  1
  758   505   506  1
  759   506   507  1
  760   507   508  1
  761   507   602  1
  762   508   605  1
  763   508   509  1
  764   509   510  1
  765   510   511  1
  766   511   512  1
  767   511   606  1
  768   512   609  1
  769   512   513  1
  770   513   514  1
  771   514   515  1
  772   515   610  1
  773   515   516  1
  774   516   517  1
  775   516   613  1
  776   517   518  1
  777   518   519  1
  778   519   520  1
  779   519   614  1
  780   520   521  1
  781   520   617  1
  782   521   522  1
  783   522   523  1
  784   523   524  1
  785   523   618  1
  786   524   525  1
  787   524   621  1
  788   525   526  1
  789   526   527  1
  790   527   528  1
  791   527   622  1
  792   528   529  1
  793   528   625  1
  794   529   530  1
  795   530   531  1
  796   531   532  1
  797   531   626  1
  798   532   533  1
  799   532   629  1
  800   533   534  1
  801   534   535  1
  802   535   536  1
  803   535   630  1
  804   536   537  1
  805   536   633  1
  806   537   538  1
  807   538   539  1
  808   539   634  1
  809   539   540  1
  810   540   541  1
  811   540   637  1
  812   541   542  1
  813   542   543  1
  814   543   544  1
  815   543   638  1
  816   544   545  1
  817   544   641  1
  818   545   546  1
  819   546   547  1
  820   547   548  1
  821   547   642  1
  822   548   549  1
  823   548   645  1
  824   549   550  1
  825   550   551  1
  826   551   552  1
  827   551   646  1
  828   552   553  1
  829   552   649  1
  830   553   554  1
  831   554   555  1
  832   555   556  1
  833   555   650  1
  834   556   557  1
  835   556   653  1
  836   557   558  1
  837   558   559  1
  838   559   560  1
  839   559   654  1
  840   560   561  1
  841   560   657  1
  842   561   562  1
  843   562   563  1
  844   563   658  1
  845   563   564  1
  846   564   565  1
  847   564   661  1
  848   565   566  1
  849   566   567  1
  850   567   568  1
  851   567   662  1
  852   568   569  1
  853   568   665  1
  854   569   570  1
  855   570   571  1
  856   571   572  1
  857   571   666  1
  858   572   573  1
  859   572   669  1
  860   573   574  1
  861   574   575  1
  862   575   576  1
  863   575   670  1
  864   576   577  1
  865   577   672  1
  866   577   578  1
  867   578   579  1
  868   579   580  1
  869   579   674  1
  870   580   581  1
  871   580   677  1
  872   581   582  1
  873   582   583  1
  874   583   584  1
  875   583   678  1
  876   584   681  1
  877   584   585  1
  878   585   586  1
  879   586   587  1
  880   587   682  1
  881   587   588  1
  882   588   589  1
  883   588   685  1
  884   589   590  1
  885   590   591  1
  886   591   592  1
  887   591   686  1
  888   592   689  1
  889   592   593  1
  890   593   594  1
  891   594   595  1
  892   595   690  1
  893   595   596  1
  894   596   597  1
  895   596   693  1
  896   597   598  1
  897   598   599  1
  898   599   694  1
  899   599   600  1
  900   600   601  1
  901   600   697  1
  902   601   602  1
  903   602   603  1
  904   603   604  1
  905   603   698  1
  906   604   701  1
  907   604   605  1
  908   605   606  1
  909   606   607  1
  910   607   608  1
  911   607   702  1
  912   608   705  1
  913   608   609  1
  914   609   610  1
  915   610   611  1
  916   611   706  1
  917   611   612  1
  918   612   613  1
  919   612   709  1
  920   613   614  1
  921   614   615  1
  922   615   616  1
  923   615   710  1
  924   616   617  1
  925   616   713  1
  926   617   618  1
  927   618   619  1
  928   619   620  1
  929   619   714  1
  930   620   621  1
  931   620   717  1
  932   621   622  1
  933   622   623  1
  934   623   624  1
  935   623   718  1
  936   624   625  1
  937   624   721  1
  938   625   626  1
  939   626   627  1
  940   627   628  1
  941   627   722  1
  942   628   629  1
  943   628   725  1
  944   629   630  1
  945   630   631  1
  946   631   632  1
  947   631   726  1
  948   632   633  1
  949   632   729  1
  950   633   634  1
  951   634   635  1
  952   635   730  1
  953   635   636  1
  954   636   637  1
  955   636   733  1
  956   637   638  1
  957   638   639  1
  958   639   640  1
  959   639   734  1
  960   640   641  1
  961   640   737  1
  962   641   642  1
  963   642   643  1
  964   643   644  1
  965   643   738  1
  966   644   645  1
  967   644   741  1
  968   645   646  1
  969   646   647  1
  970   647   648  1
  971   647   742  1
  972   648   649  1
  973   648   745  1
  974   649   650  1
  975   650   651  1
  976   651   652  1
  977   651   746  1
  978   652   653  1
  979   652   749  1
  980   653   654  1
  981   654   655  1
  982   655   656  1
  983   655   750  1
  984   656   657  1
  985   656   753  1
  986   657   658  1
  987   658   659  1
  988   659   754  1
  989   659   660  1
  990   660   661  1
  991   660   757  1
  992   661   662  1
  993   662   663  1
  994   663   664  1
  995   663   758  1
  996   664   665  1
  997   664   761  1
  998   665   666  1
  999   666   667  1
 1000   667   668  1
 1001   667   762  1
 1002   668   669  1
 1003   668   765  1
 1004   669   670  1
 1005   670   671  1
 1006   671   672  1
 1007   671   766  1
 1008   672   673  1
 1009   673   674  1
 1010   673   768  1
 1011   674   675  1
 1012   675   770  1
 1013   675   676  1
 1014   676   677  1
 1015   676   773  1
 1016   677   678  1
 1017   678   679  1
 1018   679   774  1
 1019   679   680  1
 1020   680   681  1
 1021   680   777  1
 1022   681   682  1
 1023   682   683  1
 1024   683   778  1
 1025   683   684  1
 1026   684   685  1
 1027   684   781  1
 1028   685   686  1
 1029   686   687  1
 1030   687   688  1
 1031   687   782  1
 1032   688   689  1
 1033   688   785  1
 1034   689   690  1
 1035   690   691  1
 1036   691   786  1
 1037   691   692  1
 1038   692   693  1
 1039   692   789  1
 1040   693   694  1
 1041   694   695  1
 1042   695   790  1
 1043   695   696  1
 1044   696   697  1
 1045   696   793  1
 1046   697   698  1
 1047   698   699  1
 1048   699   700  1
 1049   699   794  1
 1050   700   701  1
 1051   700   797  1
 1052   701   702  1
 1053   702   703  1
 1054   703   704  1
 1055   703   798  1
 1056   704   705  1
 1057   704   801  1
 1058   705   706  1
 1059   706   707  1
 1060   707   802  1
 1061   707   708  1
 1062   708   709  1
 1063   708   805  1
 1064   709   710  1
 1065   710   711  1
 1066   711   712  1
 1067   711   806  1
 1068   712   713  1
 1069   712   809  1
 1070   713   714  1
 1071   714   715  1
 1072   715   716  1
 1073   715   810  1
 1074   716   717  1
 1075   716   813  1
 1076   717   718  1
 1077   718   719  1
 1078   719   720  1
 1079   719   814  1
 1080   720   721  1
 1081   720   817  1
 1082   721   722  1
 1083   722   723  1
 1084   723   724  1
 1085   723   818  1
 1086   724   725  1
 1087   724   821  1
 1088   725   726  1
 1089   726   727  1
 1090   727   728  1
 1091   727   822  1
 1092   728   729  1
 1093   728   825  1
 1094   729   730  1
 1095   730   731  1
 1096   731   826  1
 1097   731   732  1
 1098   732   733  1
 1099   732   829  1
 1100   733   734  1
 1101   734   735  1
 1102   735   736  1
 1103   735   830  1
 1104   736   737  1
 1105   736   833  1
 1106   737   738  1
 1107   738   739  1
 1108   739   834  1
 1109   739   740  1
 1110   740   741  1
 1111   740   837  1
 1112   741   742  1
 1113   742   743  1
 1114   743   838  1
 1115   743   744  1
 1116   744   745  1
 1117   744   841  1
 1118   745   746  1
 1119   746   747  1
 1120   747   748  1
 1121   747   842  1
 1122   748   749  1
 1123   748   845  1
 1124   749   750  1
 1125   750   751  1
 1126   751   752  1
 1127   751   846  1
 1128   752   753  1
 1129   752   849  1
 1130   753   754  1
 1131   754   755  1
 1132   755   850  1
 1133   755   756  1
 1134   756   757  1
 1135   756   853  1
 1136   757   758  1
 1137   758   759  1
 1138   759   854  1
 1139   759   760  1
 1140   760   761  1
 1141   760   857  1
 1142   761   762  1
 1143   762   763  1
 1144   763   858  1
 1145   763   764  1
 1146   764   765  1
 1147   764   861  1
 1148   765   766  1
 1149   766   767  1
 1150   767   862  1
 1151   767   768  1
 1152   768   769  1
 1153   769   770  1
 1154   769   864  1
 1155   770   771  1
 1156   771   866  1
 1157   771   772  1
 1158   772   773  1
 1159   772   869  1
 1160   773   774  1
 1161   774   775  1
 1162   775   870  1
 1163   775   776  1
 1164   776   777  1
 1165   776   873  1
 1166   777   778  1
 1167   778   779  1
 1168   779   874  1
 1169   779   780  1
 1170   780   781  1
 1171   780   877  1
 1172   781   782  1
 1173   782   783  1
 1174   783   784  1
 1175   783   878  1
 1176   784   785  1
 1177   784   881  1
 1178   785   786  1
 1179   786   787  1
 1180   787   882  1
 1181   787   788  1
 1182   788   789  1
 1183   788   885  1
 1184   789   790  1
 1185   790   791  1
 1186   791   886  1
 1187   791   792  1
 1188   792   793  1
 1189   792   889  1
 1190   793   794  1
 1191   794   795  1
 1192   795   796  1
 1193   795   890  1
 1194   796   797  1
 1195   796   893  1
 1196   797   798  1
 1197   798   799  1
 1198   799   800  1
 1199   799   894  1
 1200   800   801  1
 1201   800   897  1
 1202   801   802  1
 1203   802   803  1
 1204   803   898  1
 1205   803   804  1
 1206   804   805  1
 1207   804   901  1
 1208   805   806  1
 1209   806   807  1
 1210   807   808  1
 1211   807   902  1
 1212   808   809  1
 1213   808   905  1
 1214   809   810  1
 1215   810   811  1
 1216   811   812  1
 1217   811   906  1
 1218   812   813  1
 1219   812   909  1
 1220   813   814  1
 1221   814   815  1
 1222   815   816  1
 1223   815   910  1
 1224   816   817  1
 1225   816   913  1
 1226   817   818  1
 1227   818   819  1
 1228   819   820  1
 1229   819   914  1
 1230   820   821  1
 1231   820   917  1
 1232   821   822  1
 1233   822   823  1
 1234   823   824  1
 1235   823   918  1
 1236   824   825  1
 1237   824   921  1
 1238   825   826  1
 1239   826   827  1
 1240   827   922  1
 1241   827   828  1
 1242   828   829  1
 1243   828   925  1
 1244   829   830  1
 1245   830   831  1
 1246   831   832  1
 1247   831   926  1
 1248   832   833  1
 1249   832   929  1
 1250   833   834  1
 1251   834   835  1
 1252   835   930  1
 1253   835   836  1
 1254   836   837  1
 1255   836   933  1
 1256   837   838  1
 1257   838   839  1
 1258   839   934  1
 1259   839   840  1
 1260   840   841  1
 1261   840   937  1
 1262   841   842  1
 1263   842   843  1
 1264   843   844  1
 1265   843   938  1
 1266   844   845  1
 1267   844   941  1
 1268   845   846  1
 1269   846   847  1
 1270   847   848  1
 1271   847   942  1
 1272   848   849  1
 1273   848   945  1
 1274   849   850  1
 1275   850   851  1
 1276   851   946  1
 1277   851   852  1
 1278   852   853  1
 1279   852   949  1
 1280   853   854  1
 1281   854   855  1
 1282   855   950  1
 1283   855   856  1
 1284   856   857  1
 1285   856   953  1
 1286   857   858  1
 1287   858   859  1
 1288   859   954  1
 1289   859   860  1
 1290   860   861  1
 1291   860   957  1
 1292   861   862  1
 1293   862   863  1
 1294   863   958  1
 1295   863   864  1
 1296   864   865  1
 1297   865   866  1
 1298   865   960  1
 1299   866   867  1
 1300   867   868  1
 1301   867   962  1
 1302   868   869  1
 1303   868   965  1
 1304   869   870  1
 1305   870   871  1
 1306   871   872  1
 1307   871   966  1
 1308   872   969  1
 1309   872   873  1
 1310   873   874  1
 1311   874   875  1
 1312   875   970  1
 1313   875   876  1
 1314   876   877  1
 1315   876   973  1
 1316   877   878  1
 1317   878   879  1
 1318   879   880  1
 1319   879   974  1
 1320   880   977  1
 1321   880   881  1
 1322   881   882  1
 1323   882   883  1
 1324   883   978  1
 1325   883   884  1
 1326   884   885  1
 1327   884   981  1
 1328   885   886  1
 1329   886   887  1
 1330   887   982  1
 1331   887   888  1
 1332   888   889  1
 1333   888   985  1
 1334   889   890  1
 1335   890   891  1
 1336   891   892  1
 1337   891   986  1
 1338   892   989  1
 1339   892   893  1
 1340   893   894  1
 1341   894   895  1
 1342   895   896  1
 1343   895   990  1
 1344   896   993  1
 1345   896   897  1
 1346   897   898  1
 1347   898   899  1
 1348   899   994  1
 1349   899   900  1
 1350   900   901  1
 1351   900   997  1
 1352   901   902  1
 1353   902   903  1
 1354   903   904  1
 1355   903   998  1
 1356   904   905  1
 1357   904  1001  1
 1358   905   906  1
 1359   906   907  1
 1360   907   908  1
 1361   907  1002  1
 1362   908   909  1
 1363   908  1005  1
 1364   909   910  1
 1365   910   911  1
 1366   911   912  1
 1367   911  1006  1
 1368   912   913  1
 1369   912  1009  1
 1370   913   914  1
 1371   914   915  1
 1372   915   916  1
 1373   915  1010  1
 1374   916   917  1
 1375   916  1013  1
 1376   917   918  1
 1377   918   919  1
 1378   919   920  1
 1379   919  1014  1
 1380   920   921  1
 1381   920  1017  1
 1382   921   922  1
 1383   922   923  1
 1384   923  1018  1
 1385   923   924  1
 1386   924   925  1
 1387   924  1021  1
 1388   925   926  1
 1389   926   927  1
 1390   927   928  1
 1391   927  1022  1
 1392   928   929  1
 1393   928  1025  1
 1394   929   930  1
 1395   930   931  1
 1396   931   932  1
 1397   931  1026  1
 1398   932   933  1
 1399   932  1029  1
 1400   933   934  1
 1401   934   935  1
 1402   935   936  1
 1403   935  1030  1
 1404   936   937  1
 1405   936  1033  1
 1406   937   938  1
 1407   938   939  1
 1408   939   940  1
 1409   939  1034  1
 1410   940   941  1
 1411   940  1037  1
 1412   941   942  1
 1413   942   943  1
 1414   943   944  1
 1415   943  1038  1
 1416   944   945  1
 1417   944  1041  1
 1418   945   946  1
 1419   946   947  1
 1420   947  1042  1
 1421   947   948  1
 1422   948   949  1
 1423   948  1045  1
 1424   949   950  1
 1425   950   951  1
 1426   951   952  1
 1427   951  1046  1
 1428   952   953  1
 1429   952  1049  1
 1430   953   954  1
 1431   954   955  1
 1432   955   956  1
 1433   955  1050  1
 1434   956   957  1
 1435   956  1053  1
 1436   957   958  1
 1437   958   959  1
 1438   959   960  1
 1439   959  1054  1
 1440   960   961  1
 1441   961  1056  1
 1442   961   962  1
 1443   962   963  1
 1444   963   964  1
 1445   963  1058  1
 1446   964   965  1
 1447   964  1061  1
 1448   965   966  1
 1449   966   967  1
 1450   967   968  1
 1451   967  1062  1
 1452   968  1065  1
 1453   968   969  1
 1454   969   970  1
 1455   970   971  1
 1456   971  1066  1
 1457   971   972  1
 1458   972   973  1
 1459   972  1069  1
 1460   973   974  1
 1461   974   975  1
 1462   975   976  1
 1463   975  1070  1
 1464   976  1073  1
 1465   976   977  1
 1466   977   978  1
 1467   978   979  1
 1468   979  1074  1
 1469   979   980  1
 1470   980   981  1
 1471   980  1077  1
 1472   981   982  1
 1473   982   983  1
 1474   983  1078  1
 1475   983   984  1
 1476   984   985  1
 1477   984  1081  1
 1478   985   986  1
 1479   986   987  1
 1480   987   988  1
 1481   987  1082  1
 1482   988  1085  1
 1483   988   989  1
 1484   989   990  1
 1485   990   991  1
 1486   991   992  1
 1487   991  1086  1
 1488   992  1089  1
 1489   992   993  1
 1490   993   994  1
 1491   994   995  1
 1492   995  1090  1
 1493   995   996  1
 1494   996   997  1
 1495   996  1093  1
 1496   997   998  1
 1497   998   999  1
 1498   999  1000  1
 1499   999  1094  1
 1500  1000  1001  1
 1501  1000  1097  1
 1502  1001  1002  1
 1503  1002  1003  1
 1504  1003  1004  1
 1505  1003  1098  1
 1506  1004  1005  1
 1507  1004  1101  1
 1508  1005  1006  1
 1509  1006  1007  1
 1510  1007  1008  1
 1511  1007  1102  1
 1512  1008  1009  1
 1513  1008  1105  1
 1514  1009  1010  1
 1515  1010  1011  1
 1516  1011  1012  1
 1517  1011  1106  1
 1518  1012  1013  1
 1519  1012  1109  1
 1520  1013  1014  1
 1521  1014  1015  1
 1522  1015  1016  1
 1523  1015  1110  1
 1524  1016  1017  1
 1525  1016  1113  1
 1526  1017  1018  1
 1527  1018  1019  1
 1528  1019  1114  1
 1529  1019  1020  1
 1530  1020  1021  1
 1531  1020  1117  1
 1532  1021  1022  1
 1533  1022  1023  1
 1534  1023  1024  1
 1535  1023  1118  1
 1536  1024  1025  1
 1537  1024  1121  1
 1538  1025  1026  1
 1539  1026  1027  1
 1540  1027  1028  1
 1541  1027  1122  1
 1542  1028  1029  1
 1543  1028  1125  1
 1544  1029  1030  1
 1545  1030  1031  1
 1546  1031  1032  1
 1547  1031  1126  1
 1548  1032  1033  1
 1549  1032  1129  1
 1550  1033  1034  1
 1551  1034  1035  1
 1552  1035  1036  1
 1553  1035  1130  1
 1554  1036  1037  1
 1555  1036  1133  1
 1556  1037  1038  1
 1557  1038  1039  1
 1558  1039  1040  1
 1559  1039  1134  1
 1560  1040  1041  1
 1561  1040  1137  1
 1562  1041  1042  1
 1563  1042  1043  1
 1564  1043  1138  1
 1565  1043  1044  1
 1566  1044  1045  1
 1567  1044  1141  1
 1568  1045  1046  1
 1569  1046  1047  1
 1570  1047  1048  1
 1571  1047  1142  1
 1572  1048  1049  1
 1573  1048  1145  1
 1574  1049  1050  1
 1575  1050  1051  1
 1576  1051  1052  1
 1577  1051  1146  1
 1578  1052  1053  1
 1579  1052  1149  1
 1580  1053  1054  1
 1581  1054  1055  1
 1582  1055  1056  1
 1583  1055  1150  1
 1584  1056  1057  1
 1585  1057  1152  1
 1586  1057  1058  1
 1587  1058  1059  1
 1588  1059  1060  1
 1589  1059  1154  1
 1590  1060  1061  1
 1591  1060  1157  1
 1592  1061  1062  1
 1593  1062  1063  1
 1594  1063  1064  1
 1595  1063  1158  1
 1596  1064  1161  1
 1597  1064  1065  1
 1598  1065  1066  1
 1599  1066  1067  1
 1600  1067  1162  1
 1601  1067  1068  1
 1602  1068  1069  1
 1603  1068  1165  1
 1604  1069  1070  1
 1605  1070  1071  1
 1606  1071  1072  1
 1607  1071  1166  1
 1608  1072  1169  1
 1609  1072  1073  1
 1610  1073  1074  1
 1611  1074  1075  1
 1612  1075  1170  1
 1613  1075  1076  1
 1614  1076  1077  1
 1615  1076  1173  1
 1616  1077  1078  1
 1617  1078  1079  1
 1618  1079  1174  1
 1619  1079  1080  1
 1620  1080  1081  1
 1621  1080  1177  1
 1622  1081  1082  1
 1623  1082  1083  1
 1624  1083  1084  1
 1625  1083  1178  1
 1626  1084  1181  1
 1627  1084  1085  1
 1628  1085  1086  1
 1629  1086  1087  1
 1630  1087  1088  1
 1631  1087  1182  1
 1632  1088  1185  1
 1633  1088  1089  1
 1634  1089  1090  1
 1635  1090  1091  1
 1636  1091  1186  1
 1637  1091  1092  1
 1638  1092  1093  1
 1639  1092  1189  1
 1640  1093  1094  1
 1641  1094  1095  1
 1642  1095  1096  1
 1643  1095  1190  1
 1644  1096  1097  1
 1645  1096  1193  1
 1646  1097  1098  1
 1647  1098  1099  1
 1648  1099  1100  1
 1649  1099  1194  1
 1650  1100  1101  1
 1651  1100  1197  1
 1652  1101  1102  1
 1653  1102  1103  1
 1654  1103  1104  1
 1655  1103  1198  1
 1656  1104  1105  1
 1657  1104  1201  1
 1658  1105  1106  1
 1659  1106  1107  1
 1660  1107  1108  1
 1661  1107  1202  1
 1662  1108  1109  1
 1663  1108  1205  1
 1664  1109  1110  1
 1665  1110  1111  1
 1666  1111  1112  1
 1667  1111  1206  1
 1668  1112  1113  1
 1669  1112  1209  1
 1670  1113  1114  1
 1671  1114  1115  1
 1672  1115  1210  1
 1673  1115  1116  1
 1674  1116  1117  1
 1675  1116  1213  1
 1676  1117  1118  1
 1677  1118  1119  1
 1678  1119  1120  1
 1679  1119  1214  1
 1680  1120  1121  1
 1681  1120  1217  1
 1682  1121  1122  1
 1683  1122  1123  1
 1684  1123  1124  1
 1685  1123  1218  1
 1686  1124  1125  1
 1687  1124  1221  1
 1688  1125  1126  1
 1689  1126  1127  1
 1690  1127  1128  1
 1691  1127  1222  1
 1692  1128  1129  1
 1693  1128  1225  1
 1694  1129  1130  1
 1695  1130  1131  1
 1696  1131  1132  1
 1697  1131  1226  1
 1698  1132  1133  1
 1699  1132  1229  1
 1700  1133  1134  1
 1701  1134  1135  1
 1702  1135  1136  1
 1703  1135  1230  1
 1704  1136  1137  1
 1705  1136  1233  1
 1706  1137  1138  1
 1707  1138  1139  1
 1708  1139  1234  1
 1709  1139  1140  1
 1710  1140  1141  1
 1711  1140  1237  1
 1712  1141  1142  1
 1713  1142  1143  1
 1714  1143  1144  1
 1715  1143  1238  1
 1716  1144  1145  1
 1717  1144  1241  1
 1718  1145  1146  1
 1719  1146  1147  1
 1720  1147  1148  1
 1721  1147  1242  1
 1722  1148  1149  1
 1723  1148  1245  1
 1724  1149  1150  1
 1725  1150  1151  1
 1726  1151  1152  1
 1727  1151  1246  1
 1728  1152  1153  1
 1729  1153  1154  1
 1730  1153  1248  1
 1731  1154  1155  1
 1732  1155  1250  1
 1733  1155  1156  1
 1734  1156  1157  1
 1735  1156  1253  1
 1736  1157  1158  1
 1737  1158  1159  1
 1738  1159  1254  1
 1739  1159  1160  1
 1740  1160  1161  1
 1741  1160  1257  1
 1742  1161  1162  1
 1743  1162  1163  1
 1744  1163  1258  1
 1745  1163  1164  1
 1746  1164  1165  1
 1747  1164  1261  1
 1748  1165  1166  1
 1749  1166  1167  1
 1750  1167  1168  1
 1751  1167  1262  1
 1752  1168  1169  1
 1753  1168  1265  1
 1754  1169  1170  1
 1755  1170  1171  1
 1756  1171  1266  1
 1757  1171  1172  1
 1758  1172  1173  1
 1759  1172  1269  1
 1760  1173  1174  1
 1761  1174  1175  1
 1762  1175  1270  1
 1763  1175  1176  1
 1764  1176  1177  1
 1765  1176  1273  1
 1766  1177  1178  1
 1767  1178  1179  1
 1768  1179  1180  1
 1769  1179  1274  1
 1770  1180  1181  1
 1771  1180  1277  1
 1772  1181  1182  1
 1773  1182  1183  1
 1774  1183  1184  1
 1775  1183  1278  1
 1776  1184  1185  1
 1777  1184  1281  1
 1778  1185  1186  1
 1779  1186  1187  1
 1780  1187  1282  1
 1781  1187  1188  1
 1782  1188  1189  1
 1783  1188  1285  1
 1784  1189  1190  1
 1785  1190  1191  1
 1786  1191  1192  1
 1787  1191  1286  1
 1788  1192  1193  1
 1789  1192  1289  1
 1790  1193  1194  1
 1791  1194  1195  1
 1792  1195  1196  1
 1793  1195  1290  1
 1794  1196  1197  1
 1795  1196  1293  1
 1796  1197  1198  1
 1797  1198  1199  1
 1798  1199  1200  1
 1799  1199  1294  1
 1800  1200  1201  1
 1801  1200  1297  1
 1802  1201  1202  1
 1803  1202  1203  1
 1804  1203  1204  1
 1805  1203  1298  1
 1806  1204  1205  1
 1807  1204  1301  1
 1808  1205  1206  1
 1809  1206  1207  1
 1810  1207  1208  1
 1811  1207  1302  1
 1812  1208  1209  1
 1813  1208  1305  1
 1814  1209  1210  1
 1815  1210  1211  1
 1816  1211  1306  1
 1817  1211  1212  1
 1818  1212  1213  1
 1819  1212  1309  1
 1820  1213  1214  1
 1821  1214  1215  1
 1822  1215  1216  1
 1823  1215  1310  1
 1824  1216  1217  1
 1825  1216  1313  1
 1826  1217  1218  1
 1827  1218  1219  1
 1828  1219  1314  1
 1829  1219  1220  1
 1830  1220  1221  1
 1831  1220  1317  1
 1832  1221  1222  1
 1833  1222  1223  1
 1834  1223  1318  1
 1835  1223  1224  1
 1836  1224  1225  1
 1837  1224  1321  1
 1838  1225  1226  1
 1839  1226  1227  1
 1840  1227  1228  1
 1841  1227  1322  1
 1842  1228  1229  1
 1843  1228  1325  1
 1844  1229  1230  1
 1845  1230  1231  1
 1846  1231  1232  1
 1847  1231  1326  1
 1848  1232  1233  1
 1849  1232  1329  1
 1850  1233  1234  1
 1851  1234  1235  1
 1852  1235  1330  1
 1853  1235  1236  1
 1854  1236  1237  1
 1855  1236  1333  1
 1856  1237  1238  1
 1857  1238  1239  1
 1858  1239  1334  1
 1859  1239  1240  1
 1860  1240  1241  1
 1861  1240  1337  1
 1862  1241  1242  1
 1863  1242  1243  1
 1864  1243  1338  1
 1865  1243  1244  1
 1866  1244  1245  1
 1867  1244  1341  1
 1868  1245  1246  1
 1869  1246  1247  1
 1870  1247  1342  1
 1871  1247  1248  1
 1872  1248  1249  1
 1873  1249  1250  1
 1874  1249  1344  1
 1875  1250  1251  1
 1876  1251  1346  1
 1877  1251  1252  1
 1878  1252  1253  1
 1879  1252  1349  1
 1880  1253  1254  1
 1881  1254  1255  1
 1882  1255  1350  1
 1883  1255  1256  1
 1884  1256  1257  1
 1885  1256  1353  1
 1886  1257  1258  1
 1887  1258  1259  1
 1888  1259  1354  1
 1889  1259  1260  1
 1890  1260  1261  1
 1891  1260  1357  1
 1892  1261  1262  1
 1893  1262  1263  1
 1894  1263  1264  1
 1895  1263  1358  1
 1896  1264  1265  1
 1897  1264  1361  1
 1898  1265  1266  1
 1899  1266  1267  1
 1900  1267  1362  1
 1901  1267  1268  1
 1902  1268  1269  1
 1903  1268  1365  1
 1904  1269  1270  1
 1905  1270  1271  1
 1906  1271  1366  1
 1907  1271  1272  1
 1908  1272  1273  1
 1909  1272  1369  1
 1910  1273  1274  1
 1911  1274  1275  1
 1912  1275  1276  1
 1913  1275  1370  1
 1914  1276  1277  1
 1915  1276  1373  1
 1916  1277  1278  1
 1917  1278  1279  1
 1918  1279  1280  1
 1919  1279  1374  1
 1920  1280  1281  1
 1921  1280  1377  1
 1922  1281  1282  1
 1923  1282  1283  1
 1924  1283  1378  1
 1925  1283  1284  1
 1926  1284  1285  1
 1927  1284  1381  1
 1928  1285  1286  1
 1929  1286  1287  1
 1930  1287  1288  1
 1931  1287  1382  1
 1932  1288  1289  1
 1933  1288  1385  1
 1934  1289  1290  1
 1935  1290  1291  1
 1936  1291  1292  1
 1937  1291  1386  1
 1938  1292  1293  1
 1939  1292  1389  1
 1940  1293  1294  1
 1941  1294  1295  1
 1942  1295  1296  1
 1943  1295  1390  1
 1944  1296  1297  1
 1945  1296  1393  1
 1946  1297  1298  1
 1947  1298  1299  1
 1948  1299  1300  1
 1949  1299  1394  1
 1950  1300  1301  1
 1951  1300  1397  1
 1952  1301  1302  1
 1953  1302  1303  1
 1954  1303  1304  1
 1955  1303  1398  1
 1956  1304  1305  1
 1957  1304  1401  1
 1958  1305  1306  1
 1959  1306  1307  1
 1960  1307  1402  1
 1961  1307  1308  1
 1962  1308  1309  1
 1963  1308  1405  1
 1964  1309  1310  1
 1965  1310  1311  1
 1966  1311  1312  1
 1967  1311  1406  1
 1968  1312  1313  1
 1969  1312  1409  1
 1970  1313  1314  1
 1971  1314  1315  1
 1972  1315  1410  1
 1973  1315  1316  1
 1974  1316  1317  1
 1975  1316  1413  1
 1976  1317  1318  1
 1977  1318  1319  1
 1978  1319  1414  1
 1979  1319  1320  1
 1980  1320  1321  1
 1981  1320  1417  1
 1982  1321  1322  1
 1983  1322  1323  1
 1984  1323  1324  1
 1985  1323  1418  1
 1986  1324  1325  1
 1987  1324  1421  1
 1988  1325  1326  1
 1989  1326  1327  1
 1990  1327  1328  1
 1991  1327  1422  1
 1992  1328  1329  1
 1993  1328  1425  1
 1994  1329  1330  1
 1995  1330  1331  1
 1996  1331  1426  1
 1997  1331  1332  1
 1998  1332  1333  1
 1999  1332  1429  1
 2000  1333  1334  1
 2001  1334  1335  1
 2002  1335  1430  1
 2003  1335  1336  1
 2004  1336  1337  1
 2005  1336  1433  1
 2006  1337  1338  1
 2007  1338  1339  1
 2008  1339  1434  1
 2009  1339  1340  1
 2010  1340  1341  1
 2011  1340  1437  1
 2012  1341  1342  1
 2013  1342  1343  1
 2014  1343  1438  1
 2015  1343  1344  1
 2016  1344  1345  1
 2017  1345  1346  1
 2018  1345  1440  1
 2019  1346  1347  1
 2020  1347  1348  1
 2021  1347  1442  1
 2022  1348  1349  1
 2023  1348  1445  1
 2024  1349  1350  1
 2025  1350  1351  1
 2026  1351  1352  1
 2027  1351  1446  1
 2028  1352  1449  1
 2029  1352  1353  1
 2030  1353  1354  1
 2031  1354  1355  1
 2032  1355  1450  1
 2033  1355  1356  1
 2034  1356  1357  1
 2035  1356  1453  1
 2036  1357  1358  1
 2037  1358  1359  1
 2038  1359  1360  1
 2039  1359  1454  1
 2040  1360  1457  1
 2041  1360  1361  1
 2042  1361  1362  1
 2043  1362  1363  1
 2044  1363  1458  1
 2045  1363  1364  1
 2046  1364  1365  1
 2047  1364  1461  1
 2048  1365  1366  1
 2049  1366  1367  1
 2050  1367  1462  1
 2051  1367  1368  1
 2052  1368  1369  1
 2053  1368  1465  1
 2054  1369  1370  1
 2055  1370  1371  1
 2056  1371  1372  1
 2057  1371  1466  1
 2058  1372  1469  1
 2059  1372  1373  1
 2060  1373  1374  1
 2061  1374  1375  1
 2062  1375  1376  1
 2063  1375  1470  1
 2064  1376  1473  1
 2065  1376  1377  1
 2066  1377  1378  1
 2067  1378  1379  1
 2068  1379  1474  1
 2069  1379  1380  1
 2070  1380  1381  1
 2071  1380  1477  1
 2072  1381  1382  1
 2073  1382  1383  1
 2074  1383  1384  1
 2075  1383  1478  1
 2076  1384  1385  1
 2077  1384  1481  1
 2078  1385  1386  1
 2079  1386  1387  1
 2080  1387  1388  1
 2081  1387  1482  1
 2082  1388  1389  1
 2083  1388  1485  1
 2084  1389  1390  1
 2085  1390  1391  1
 2086  1391  1392  1
 2087  1391  1486  1
 2088  1392  1393  1
 2089  1392  1489  1
 2090  1393  1394  1
 2091  1394  1395  1
 2092  1395  1396  1
 2093  1395  1490  1
 2094  1396  1397  1
 2095  1396  1493  1
 2096  1397  1398  1
 2097  1398  1399  1
 2098  1399  1400  1
 2099  1399  1494  1
 2100  1400  1401  1
 2101  1400  1497  1
 2102  1401  1402  1
 2103  1402  1403  1
 2104  1403  1498  1
 2105  1403  1404  1
 2106  1404  1405  1
 2107  1404  1501  1
 2108  1405  1406  1
 2109  1406  1407  1
 2110  1407  1408  1
 2111  1407  1502  1
 2112  1408  1409  1
 2113  1408  1505  1
 2114  1409  1410  1
 2115  1410  1411  1
 2116  1411  1412  1
 2117  1411  1506  1
 2118  1412  1413  1
 2119  1412  1509  1
 2120  1413  1414  1
 2121  1414  1415  1
 2122  1415  1416  1
 2123  1415  1510  1
 2124  1416  1417  1
 2125  1416  1513  1
 2126  1417  1418  1
 2127  1418  1419  1
 2128  1419  1420  1
 2129  1419  1514  1
 2130  1420  1421  1
 2131  1420  1517  1
 2132  1421  1422  1
 2133  1422  1423  1
 2134  1423  1424  1
 2135  1423  1518  1
 2136  1424  1425  1
 2137  1424  1521  1
 2138  1425  1426  1
 2139  1426  1427  1
 2140  1427  1522  1
 2141  1427  1428  1
 2142  1428  1429  1
 2143  1428  1525  1
 2144  1429  1430  1
 2145  1430  1431  1
 2146  1431  1432  1
 2147  1431  1526  1
 2148  1432  1433  1
 2149  1432  1529  1
 2150  1433  1434  1
 2151  1434  1435  1
 2152  1435  1436  1
 2153  1435  1530  1
 2154  1436  1437  1
 2155  1436  1533  1
 2156  1437  1438  1
 2157  1438  1439  1
 2158  1439  1440  1
 2159  1439  1534  1
 2160  1440  1441  1
 2161  1441  1536  1
 2162  1441  1442  1
 2163  1442  1443  1
 2164  1443  1444  1
 2165  1443  1538  1
 2166  1444  1445  1
 2167  1444  1541  1
 2168  1445  1446  1
 2169  1446  1447  1
 2170  1447  1448  1
 2171  1447  1542  1
 2172  1448  1545  1
 2173  1448  1449  1
 2174  1449  1450  1
 2175  1450  1451  1
 2176  1451  1546  1
 2177  1451  1452  1
 2178  1452  1453  1
 2179  1452  1549  1
 2180  1453  1454  1
 2181  1454  1455  1
 2182  1455  1456  1
 2183  1455  1550  1
 2184  1456  1553  1
 2185  1456  1457  1
 2186  1457  1458  1
 2187  1458  1459  1
 2188  1459  1554  1
 2189  1459  1460  1
 2190  1460  1461  1
 2191  1460  1557  1
 2192  1461  1462  1
 2193  1462  1463  1
 2194  1463  1558  1
 2195  1463  1464  1
 2196  1464  1465  1
 2197  1464  1561  1
 2198  1465  1466  1
 2199  1466  1467  1
 2200  1467  1468  1
 2201  1467  1562  1
 2202  1468  1565  1
 2203  1468  1469  1
 2204  1469  1470  1
 2205  1470  1471  1
 2206  1471  1472  1
 2207  1471  1566  1
 2208  1472  1569  1
 2209  1472  1473  1
 2210  1473  1474  1
 2211  1474  1475  1
 2212  1475  1570  1
 2213  1475  1476  1
 2214  1476  1477  1
 2215  1476  1573  1
 2216  1477  1478  1
 2217  1478  1479  1
 2218  1479  1480  1
 2219  1479  1574  1
 2220  1480  1481  1
 2221  1480  1577  1
 2222  1481  1482  1
 2223  1482  1483  1
 2224  1483  1484  1
 2225  1483  1578  1
 2226  1484  1485  1
 2227  1484  1581  1
 2228  1485  1486  1
 2229  1486  1487  1
 2230  1487  1488  1
 2231  1487  1582  1
 2232  1488  1489  1
 2233  1488  1585  1
 2234  1489  1490  1
 2235  1490  1491  1
 2236  1491  1492  1
 2237  1491  1586  1
 2238  1492  1493  1
 2239  1492  1589  1
 2240  1493  1494  1
 2241  1494  1495  1
 2242  1495  1496  1
 2243  1495  1590  1
 2244  1496  1497  1
 2245  1496  1593  1
 2246  1497  1498  1
 2247  1498  1499  1
 2248  1499  1594  1
 2249  1499  1500  1
 2250  1500  1501  1
 2251  1500  1597  1
 2252  1501  1502  1
 2253  1502  1503  1
 2254  1503  1504  1
 2255  1503  1598  1
 2256  1504  1505  1
 2257  1504  1601  1
 2258  1505  1506  1
 2259  1506  1507  1
 2260  1507  1508  1
 2261  1507  1602  1
 2262  1508  1509  1
 2263  1508  1605  1
 2264  1509  1510  1
 2265  1510  1511  1
 2266  1511  1512  1
 2267  1511  1606  1
 2268  1512  1513  1
 2269  1512  1609  1
 2270  1513  1514  1
 2271  1514  1515  1
 2272  1515  1516  1
 2273  1515  1610  1
 2274  1516  1517  1
 2275  1516  1613  1
 2276  1517  1518  1
 2277  1518  1519  1
 2278  1519  1520  1
 2279  1519  1614  1
 2280  1520  1521  1
 2281  1520  1617  1
 2282  1521  1522  1
 2283  1522  1523  1
 2284  1523  1618  1
 2285  1523  1524  1
 2286  1524  1525  1
 2287  1524  1621  1
 2288  1525  1526  1
 2289  1526  1527  1
 2290  1527  1528  1
 2291  1527  1622  1
 2292  1528  1529  1
 2293  1528  1625  1
 2294  1529  1530  1
 2295  1530  1531  1
 2296  1531  1532  1
 2297  1531  1626  1
 2298  1532  1533  1
 2299  1532  1629  1
 2300  1533  1534  1
 2301  1534  1535  1
 2302  1535  1536  1
 2303  1535  1630  1
 2304  1536  1537  1
 2305  1537  1632  1
 2306  1537  1538  1
 2307  1538  1539  1
 2308  1539  1540  1
 2309  1539  1634  1
 2310  1540  1541  1
 2311  1540  1637  1
 2312  1541  1542  1
 2313  1542  1543  1
 2314  1543  1544  1
 2315  1543  1638  1
 2316  1544  1641  1
 2317  1544  1545  1
 2318  1545  1546  1
 2319  1546  1547  1
 2320  1547  1642  1
 2321  1547  1548  1
 2322  1548  1549  1
 2323  1548  1645  1
 2324  1549  1550  1
 2325  1550  1551  1
 2326  1551  1552  1
 2327  1551  1646  1
 2328  1552  1649  1
 2329  1552  1553  1
 2330  1553  1554  1
 2331  1554  1555  1
 2332  1555  1650  1
 2333  1555  1556  1
 2334  1556  1557  1
 2335  1556  1653  1
 2336  1557  1558  1
 2337  1558  1559  1
 2338  1559  1654  1
 2339  1559  1560  1
 2340  1560  1561  1
 2341  1560  1657  1
 2342  1561  1562  1
 2343  1562  1563  1
 2344  1563  1564  1
 2345  1563  1658  1
 2346  1564  1661  1
 2347  1564  1565  1
 2348  1565  1566  1
 2349  1566  1567  1
 2350  1567  1568  1
 2351  1567  1662  1
 2352  1568  1665  1
 2353  1568  1569  1
 2354  1569  1570  1
 2355  1570  1571  1
 2356  1571  1666  1
 2357  1571  1572  1
 2358  1572  1573  1
 2359  1572  1669  1
 2360  1573  1574  1
 2361  1574  1575  1
 2362  1575  1576  1
 2363  1575  1670  1
 2364  1576  1577  1
 2365  1576  1673  1
 2366  1577  1578  1
 2367  1578  1579  1
 2368  1579  1580  1
 2369  1579  1674  1
 2370  1580  1581  1
 2371  1580  1677  1
 2372  1581  1582  1
 2373  1582  1583  1
 2374  1583  1584  1
 2375  1583  1678  1
 2376  1584  1585  1
 2377  1584  1681  1
 2378  1585  1586  1
 2379  1586  1587  1
 2380  1587  1588  1
 2381  1587  1682  1
 2382  1588  1589  1
 2383  1588  1685  1
 2384  1589  1590  1
 2385  1590  1591  1
 2386  1591  1592  1
 2387  1591  1686  1
 2388  1592  1593  1
 2389  1592  1689  1
 2390  1593  1594  1
 2391  1594  1595  1
 2392  1595  1690  1
 2393  1595  1596  1
 2394  1596  1597  1
 2395  1596  1693  1
 2396  1597  1598  1
 2397  1598  1599  1
 2398  1599  1600  1
 2399  1599  1694  1
 2400  1600  1601  1
 2401  1600  1697  1
 2402  1601  1602  1
 2403  1602  1603  1
 2404  1603  1604  1
 2405  1603  1698  1
 2406  1604  1605  1
 2407  1604  1701  1
 2408  1605  1606  1
 2409  1606  1607  1
 2410  1607  1608  1
 2411  1607  1702  1
 2412  1608  1609  1
 2413  1608  1705  1
 2414  1609  1610  1
 2415  1610  1611  1
 2416  1611  1612  1
 2417  1611  1706  1
 2418  1612  1613  1
 2419  1612  1709  1
 2420  1613  1614  1
 2421  1614  1615  1
 2422  1615  1616  1
 2423  1615  1710  1
 2424  1616  1617  1
 2425  1616  1713  1
 2426  1617  1618  1
 2427  1618  1619  1
 2428  1619  1714  1
 2429  1619  1620  1
 2430  1620  1621  1
 2431  1620  1717  1
 2432  1621  1622  1
 2433  1622  1623  1
 2434  1623  1624  1
 2435  1623  1718  1
 2436  1624  1625  1
 2437  1624  1721  1
 2438  1625  1626  1
 2439  1626  1627  1
 2440  1627  1628  1
 2441  1627  1722  1
 2442  1628  1629  1
 2443  1628  1725  1
 2444  1629  1630  1
 2445  1630  1631  1
 2446  1631  1632  1
 2447  1631  1726  1
 2448  1632  1633  1
 2449  1633  1634  1
 2450  1633  1728  1
 2451  1634  1635  1
 2452  1635  1730  1
 2453  1635  1636  1
 2454  1636  1637  1
 2455  1636  1733  1
 2456  1637  1638  1
 2457  1638  1639  1
 2458  1639  1734  1
 2459  1639  1640  1
 2460  1640  1641  1
 2461  1640  1737  1
 2462  1641  1642  1
 2463  1642  1643  1
 2464  1643  1738  1
 2465  1643  1644  1
 2466  1644  1645  1
 2467  1644  1741  1
 2468  1645  1646  1
 2469  1646  1647  1
 2470  1647  1648  1
 2471  1647  1742  1
 2472  1648  1649  1
 2473  1648  1745  1
 2474  1649  1650  1
 2475  1650  1651  1
 2476  1651  1746  1
 2477  1651  1652  1
 2478  1652  1653  1
 2479  1652  1749  1
 2480  1653  1654  1
 2481  1654  1655  1
 2482  1655  1750  1
 2483  1655  1656  1
 2484  1656  1657  1
 2485  1656  1753  1
 2486  1657  1658  1
 2487  1658  1659  1
 2488  1659  1660  1
 2489  1659  1754  1
 2490  1660  1661  1
 2491  1660  1757  1
 2492  1661  1662  1
 2493  1662  1663  1
 2494  1663  1664  1
 2495  1663  1758  1
 2496  1664  1665  1
 2497  1664  1761  1
 2498  1665  1666  1
 2499  1666  1667  1
 2500  1667  1762  1
 2501  1667  1668  1
 2502  1668  1669  1
 2503  1668  1765  1
 2504  1669  1670  1
 2505  1670  1671  1
 2506  1671  1672  1
 2507  1671  1766  1
 2508  1672  1673  1
 2509  1672  1769  1
 2510  1673  1674  1
 2511  1674  1675  1
 2512  1675  1676  1
 2513  1675  1770  1
 2514  1676  1677  1
 2515  1676  1773  1
 2516  1677  1678  1
 2517  1678  1679  1
 2518  1679  1680  1
 2519  1679  1774  1
 2520  1680  1681  1
 2521  1680  1777  1
 2522  1681  1682  1
 2523  1682  1683  1
 2524  1683  1684  1
 2525  1683  1778  1
 2526  1684  1685  1
 2527  1684  1781  1
 2528  1685  1686  1
 2529  1686  1687  1
 2530  1687  1688  1
 2531  1687  1782  1
 2532  1688  1689  1
 2533  1688  1785  1
 2534  1689  1690  1
 2535  1690  1691  1
 2536  1691  1786  1
 2537  1691  1692  1
 2538  1692  1693  1
 2539  1692  1789  1
 2540  1693  1694  1
 2541  1694  1695  1
 2542  1695  1696  1
 2543  1695  1790  1
 2544  1696  1697  1
 2545  1696  1793  1
 2546  1697  1698  1
 2547  1698  1699  1
 2548  1699  1794  1
 2549  1699  1700  1
 2550  1700  1701  1
 2551  1700  1797  1
 2552  1701  1702  1
 2553  1702  1703  1
 2554  1703  1798  1
 2555  1703  1704  1
 2556  1704  1705  1
 2557  1704  1801  1
 2558  1705  1706  1
 2559  1706  1707  1
 2560  1707  1708  1
 2561  1707  1802  1
 2562  1708  1709  1
 2563  1708  1805  1
 2564  1709  1710  1
 2565  1710  1711  1
 2566  1711  1712  1
 2567  1711  1806  1
 2568  1712  1713  1
 2569  1712  1809  1
 2570  1713  1714  1
 2571  1714  1715  1
 2572  1715  1810  1
 2573  1715  1716  1
 2574  1716  1717  1
 2575  1716  1813  1
 2576  1717  1718  1
 2577  1718  1719  1
 2578  1719  1814  1
 2579  1719  1720  1
 2580  1720  1721  1
 2581  1720  1817  1
 2582  1721  1722  1
 2583  1722  1723  1
 2584  1723  1818  1
 2585  1723  1724  1
 2586  1724  1725  1
 2587  1724  1821  1
 2588  1725  1726  1
 2589  1726  1727  1
 2590  1727  1822  1
 2591  1727  1728  1
 2592  1728  1729  1
 2593  1729  1730  1
 2594  1729  1824  1
 2595  1730  1731  1
 2596  1731  1826  1
 2597  1731  1732  1
 2598  1732  1733  1
 2599  1732  1829  1
 2600  1733  1734  1
 2601  1734  1735  1
 2602  1735  1830  1
 2603  1735  1736  1
 2604  1736  1737  1
 2605  1736  1833  1
 2606  1737  1738  1
 2607  1738  1739  1
 2608  1739  1834  1
 2609  1739  1740  1
 2610  1740  1741  1
 2611  1740  1837  1
 2612  1741  1742  1
 2613  1742  1743  1
 2614  1743  1744  1
 2615  1743  1838  1
 2616  1744  1745  1
 2617  1744  1841  1
 2618  1745  1746  1
 2619  1746  1747  1
 2620  1747  1842  1
 2621  1747  1748  1
 2622  1748  1749  1
 2623  1748  1845  1
 2624  1749  1750  1
 2625  1750  1751  1
 2626  1751  1846  1
 2627  1751  1752  1
 2628  1752  1753  1
 2629  1752  1849  1
 2630  1753  1754  1
 2631  1754  1755  1
 2632  1755  1756  1
 2633  1755  1850  1
 2634  1756  1757  1
 2635  1756  1853  1
 2636  1757  1758  1
 2637  1758  1759  1
 2638  1759  1760  1
 2639  1759  1854  1
 2640  1760  1761  1
 2641  1760  1857  1
 2642  1761  1762  1
 2643  1762  1763  1
 2644  1763  1858  1
 2645  1763  1764  1
 2646  1764  1765  1
 2647  1764  1861  1
 2648  1765  1766  1
 2649  1766  1767  1
 2650  1767  1768  1
 2651  1767  1862  1
 2652  1768  1769  1
 2653  1768  1865  1
 2654  1769  1770  1
 2655  1770  1771  1
 2656  1771  1772  1
 2657  1771  1866  1
 2658  1772  1773  1
 2659  1772  1869  1
 2660  1773  1774  1
 2661  1774  1775  1
 2662  1775  1776  1
 2663  1775  1870  1
 2664  1776  1777  1
 2665  1776  1873  1
 2666  1777  1778  1
 2667  1778  1779  1
 2668  1779  1780  1
 2669  1779  1874  1
 2670  1780  1781  1
 2671  1780  1877  1
 2672  1781  1782  1
 2673  1782  1783  1
 2674  1783  1784  1
 2675  1783  1878  1
 2676  1784  1785  1
 2677  1784  1881  1
 2678  1785  1786  1
 2679  1786  1787  1
 2680  1787  1882  1
 2681  1787  1788  1
 2682  1788  1789  1
 2683  1788  1885  1
 2684  1789  1790  1
 2685  1790  1791  1
 2686  1791  1792  1
 2687  1791  1886  1
 2688  1792  1793  1
 2689  1792  1889  1
 2690  1793  1794  1
 2691  1794  1795  1
 2692  1795  1890  1
 2693  1795  1796  1
 2694  1796  1797  1
 2695  1796  1893  1
 2696  1797  1798  1
 2697  1798  1799  1
 2698  1799  1894  1
 2699  1799  1800  1
 2700  1800  1801  1
 2701  1800  1897  1
 2702  1801  1802  1
 2703  1802  1803  1
 2704  1803  1804  1
 2705  1803  1898  1
 2706  1804  1805  1
 2707  1804  1901  1
 2708  1805  1806  1
 2709  1806  1807  1
 2710  1807  1808  1
 2711  1807  1902  1
 2712  1808  1809  1
 2713  1808  1905  1
 2714  1809  1810  1
 2715  1810  1811  1
 2716  1811  1906  1
 2717  1811  1812  1
 2718  1812  1813  1
 2719  1812  1909  1
 2720  1813  1814  1
 2721  1814  1815  1
 2722  1815  1910  1
 2723  1815  1816  1
 2724  1816  1817  1
 2725  1816  1913  1
 2726  1817  1818  1
 2727  1818  1819  1
 2728  1819  1914  1
 2729  1819  1820  1
 2730  1820  1821  1
 2731  1820  1917  1
 2732  1821  1822  1
 2733  1822  1823  1
 2734  1823  1918  1
 2735  1823  1824  1
 2736  1824  1825  1
 2737  1825  1826  1
 2738  1825  1920  1
 2739  1826  1827  1
 2740  1827  1828  1
 2741  1827  1922  1
 2742  1828  1829  1
 2743  1828  1925  1
 2744  1829  1830  1
 2745  1830  1831  1
 2746  1831  1832  1
 2747  1831  1926  1
 2748  1832  1929  1
 2749  1832  1833  1
 2750  1833  1834  1
 2751  1834  1835  1
 2752  1835  1930  1
 2753  1835  1836  1
 2754  1836  1837  1
 2755  1836  1933  1
 2756  1837  1838  1
 2757  1838  1839  1
 2758  1839  1840  1
 2759  1839  1934  1
 2760  1840  1937  1
 2761  1840  1841  1
 2762  1841  1842  1
 2763  1842  1843  1
 2764  1843  1938  1
 2765  1843  1844  1
 2766  1844  1845  1
 2767  1844  1941  1
 2768  1845  1846  1
 2769  1846  1847  1
 2770  1847  1942  1
 2771  1847  1848  1
 2772  1848  1849  1
 2773  1848  1945  1
 2774  1849  1850  1
 2775  1850  1851  1
 2776  1851  1852  1
 2777  1851  1946  1
 2778  1852  1949  1
 2779  1852  1853  1
 2780  1853  1854  1
 2781  1854  1855  1
 2782  1855  1856  1
 2783  1855  1950  1
 2784  1856  1953  1
 2785  1856  1857  1
 2786  1857  1858  1
 2787  1858  1859  1
 2788  1859  1954  1
 2789  1859  1860  1
 2790  1860  1861  1
 2791  1860  1957  1
 2792  1861  1862  1
 2793  1862  1863  1
 2794  1863  1864  1
 2795  1863  1958  1
 2796  1864  1865  1
 2797  1864  1961  1
 2798  1865  1866  1
 2799  1866  1867  1
 2800  1867  1868  1
 2801  1867  1962  1
 2802  1868  1869  1
 2803  1868  1965  1
 2804  1869  1870  1
 2805  1870  1871  1
 2806  1871  1872  1
 2807  1871  1966  1
 2808  1872  1873  1
 2809  1872  1969  1
 2810  1873  1874  1
 2811  1874  1875  1
 2812  1875  1876  1
 2813  1875  1970  1
 2814  1876  1877  1
 2815  1876  1973  1
 2816  1877  1878  1
 2817  1878  1879  1
 2818  1879  1880  1
 2819  1879  1974  1
 2820  1880  1881  1
 2821  1880  1977  1
 2822  1881  1882  1
 2823  1882  1883  1
 2824  1883  1978  1
 2825  1883  1884  1
 2826  1884  1885  1
 2827  1884  1981  1
 2828  1885  1886  1
 2829  1886  1887  1
 2830  1887  1888  1
 2831  1887  1982  1
 2832  1888  1889  1
 2833  1888  1985  1
 2834  1889  1890  1
 2835  1890  1891  1
 2836  1891  1892  1
 2837  1891  1986  1
 2838  1892  1893  1
 2839  1892  1989  1
 2840  1893  1894  1
 2841  1894  1895  1
 2842  1895  1896  1
 2843  1895  1990  1
 2844  1896  1897  1
 2845  1896  1993  1
 2846  1897  1898  1
 2847  1898  1899  1
 2848  1899  1900  1
 2849  1899  1994  1
 2850  1900  1901  1
 2851  1900  1997  1
 2852  1901  1902  1
 2853  1902  1903  1
 2854  1903  1904  1
 2855  1903  1998  1
 2856  1904  1905  1
 2857  1904  2001  1
 2858  1905  1906  1
 2859  1906  1907  1
 2860  1907  2002  1
 2861  1907  1908  1
 2862  1908  1909  1
 2863  1908  2005  1
 2864  1909  1910  1
 2865  1910  1911  1
 2866  1911  1912  1
 2867  1911  2006  1
 2868  1912  1913  1
 2869  1912  2009  1
 2870  1913  1914  1
 2871  1914  1915  1
 2872  1915  1916  1
 2873  1915  2010  1
 2874  1916  1917  1
 2875  1916  2013  1
 2876  1917  1918  1
 2877  1918  1919  1
 2878  1919  1920  1
 2879  1919  2014  1
 2880  1920  1921  1
 2881  1921  2016  1
 2882  1921  1922  1
 2883  1922  1923  1
 2884  1923  1924  1
 2885  1923  2018  1
 2886  1924  1925  1
 2887  1924  2021  1
 2888  1925  1926  1
 2889  1926  1927  1
 2890  1927  1928  1
 2891  1927  2022  1
 2892  1928  2025  1
 2893  1928  1929  1
 2894  1929  1930  1
 2895  1930  1931  1
 2896  1931  2026  1
 2897  1931  1932  1
 2898  1932  1933  1
 2899  1932  2029  1
 2900  1933  1934  1
 2901  1934  1935  1
 2902  1935  1936  1
 2903  1935  2030  1
 2904  1936  2033  1
 2905  1936  1937  1
 2906  1937  1938  1
 2907  1938  1939  1
 2908  1939  2034  1
 2909  1939  1940  1
 2910  1940  1941  1
 2911  1940  2037  1
 2912  1941  1942  1
 2913  1942  1943  1
 2914  1943  2038  1
 2915  1943  1944  1
 2916  1944  1945  1
 2917  1944  2041  1
 2918  1945  1946  1
 2919  1946  1947  1
 2920  1947  1948  1
 2921  1947  2042  1
 2922  1948  2045  1
 2923  1948  1949  1
 2924  1949  1950  1
 2925  1950  1951  1
 2926  1951  1952  1
 2927  1951  2046  1
 2928  1952  2049  1
 2929  1952  1953  1
 2930  1953  1954  1
 2931  1954  1955  1
 2932  1955  2050  1
 2933  1955  1956  1
 2934  1956  1957  1
 2935  1956  2053  1
 2936  1957  1958  1
 2937  1958  1959  1
 2938  1959  1960  1
 2939  1959  2054  1
 2940  1960  1961  1
 2941  1960  2057  1
 2942  1961  1962  1
 2943  1962  1963  1
 2944  1963  1964  1
 2945  1963  2058  1
 2946  1964  1965  1
 2947  1964  2061  1
 2948  1965  1966  1
 2949  1966  1967  1
 2950  1967  1968  1
 2951  1967  2062  1
 2952  1968  1969  1
 2953  1968  2065  1
 2954  1969  1970  1
 2955  1970  1971  1
 2956  1971  1972  1
 2957  1971  2066  1
 2958  1972  1973  1
 2959  1972  2069  1
 2960  1973  1974  1
 2961  1974  1975  1
 2962  1975  1976  1
 2963  1975  2070  1
 2964  1976  1977  1
 2965  1976  2073  1
 2966  1977  1978  1
 2967  1978  1979  1
 2968  1979  2074  1
 2969  1979  1980  1
 2970  1980  1981  1
 2971  1980  2077  1
 2972  1981  1982  1
 2973  1982  1983  1
 2974  1983  1984  1
 2975  1983  2078  1
 2976  1984  1985  1
 2977  1984  2081  1
 2978  1985  1986  1
 2979  1986  1987  1
 2980  1987  1988  1
 2981  1987  2082  1
 2982  1988  1989  1
 2983  1988  2085  1
 2984  1989  1990  1
 2985  1990  1991  1
 2986  1991  1992  1
 2987  1991  2086  1
 2988  1992  1993  1
 2989  1992  2089  1
 2990  1993  1994  1
 2991  1994  1995  1
 2992  1995  1996  1
 2993  1995  2090  1
 2994  1996  1997  1
 2995  1996  2093  1
 2996  1997  1998  1
 2997  1998  1999  1
 2998  1999  2000  1
 2999  1999  2094  1
 3000  2000  2001  1
 3001  2000  2097  1
 3002  2001  2002  1
 3003  2002  2003  1
 3004  2003  2098  1
 3005  2003  2004  1
 3006  2004  2005  1
 3007  2004  2101  1
 3008  2005  2006  1
 3009  2006  2007  1
 3010  2007  2008  1
 3011  2007  2102  1
 3012  2008  2009  1
 3013  2008  2105  1
 3014  2009  2010  1
 3015  2010  2011  1
 3016  2011  2012  1
 3017  2011  2106  1
 3018  2012  2013  1
 3019  2012  2109  1
 3020  2013  2014  1
 3021  2014  2015  1
 3022  2015  2016  1
 3023  2015  2110  1
 3024  2016  2017  1
 3025  2017  2112  1
 3026  2017  2018  1
 3027  2018  2019  1
 3028  2019  2020  1
 3029  2019  2114  1
 3030  2020  2021  1
 3031  2020  2117  1
 3032  2021  2022  1
 3033  2022  2023  1
 3034  2023  2024  1
 3035  2023  2118  1
 3036  2024  2121  1
 3037  2024  2025  1
 3038  2025  2026  1
 3039  2026  2027  1
 3040  2027  2122  1
 3041  2027  2028  1
 3042  2028  2029  1
 3043  2028  2125  1
 3044  2029  2030  1
 3045  2030  2031  1
 3046  2031  2032  1
 3047  2031  2126  1
 3048  2032  2129  1
 3049  2032  2033  1
 3050  2033  2034  1
 3051  2034  2035  1
 3052  2035  2130  1
 3053  2035  2036  1
 3054  2036  2037  1
 3055  2036  2133  1
 3056  2037  2038  1
 3057  2038  2039  1
 3058  2039  2134  1
 3059  2039  2040  1
 3060  2040  2041  1
 3061  2040  2137  1
 3062  2041  2042  1
 3063  2042  2043  1
 3064  2043  2044  1
 3065  2043  2138  1
 3066  2044  2141  1
 3067  2044  2045  1
 3068  2045  2046  1
 3069  2046  2047  1
 3070  2047  2048  1
 3071  2047  2142  1
 3072  2048  2145  1
 3073  2048  2049  1
 3074  2049  2050  1
 3075  2050  2051  1
 3076  2051  2146  1
 3077  2051  2052  1
 3078  2052  2053  1
 3079  2052  2149  1
 3080  2053  2054  1
 3081  2054  2055  1
 3082  2055  2056  1
 3083  2055  2150  1
 3084  2056  2057  1
 3085  2056  2153  1
 3086  2057  2058  1
 3087  2058  2059  1
 3088  2059  2060  1
 3089  2059  2154  1
 3090  2060  2061  1
 3091  2060  2157  1
 3092  2061  2062  1
 3093  2062  2063  1
 3094  2063  2064  1
 3095  2063  2158  1
 3096  2064  2065  1
 3097  2064  2161  1
 3098  2065  2066  1
 3099  2066  2067  1
 3100  2067  2068  1
 3101  2067  2162  1
 3102  2068  2069  1
 3103  2068  2165  1
 3104  2069  2070  1
 3105  2070  2071  1
 3106  2071  2072  1
 3107  2071  2166  1
 3108  2072  2073  1
 3109  2072  2169  1
 3110  2073  2074  1
 3111  2074  2075  1
 3112  2075  2170  1
 3113  2075  2076  1
 3114  2076  2077  1
 3115  2076  2173  1
 3116  2077  2078  1
 3117  2078  2079  1
 3118  2079  2080  1
 3119  2079  2174  1
 3120  2080  2081  1
 3121  2080  2177  1
 3122  2081  2082  1
 3123  2082  2083  1
 3124  2083  2084  1
 3125  2083  2178  1
 3126  2084  2085  1
 3127  2084  2181  1
 3128  2085  2086  1
 3129  2086  2087  1
 3130  2087  2088  1
 3131  2087  2182  1
 3132  2088  2089  1
 3133  2088  2185  1
 3134  2089  2090  1
 3135  2090  2091  1
 3136  2091  2092  1
 3137  2091  2186  1
 3138  2092  2093  1
 3139  2092  2189  1
 3140  2093  2094  1
 3141  2094  2095  1
 3142  2095  2096  1
 3143  2095  2190  1
 3144  2096  2097  1
 3145  2096  2193  1
 3146  2097  2098  1
 3147  2098  2099  1
 3148  2099  2194  1
 3149  2099  2100  1
 3150  2100  2101  1
 3151  2100  2197  1
 3152  2101  2102  1
 3153  2102  2103  1
 3154  2103  2104  1
 3155  2103  2198  1
 3156  2104  2105  1
 3157  2104  2201  1
 3158  2105  2106  1
 3159  2106  2107  1
 3160  2107  2108  1
 3161  2107  2202  1
 3162  2108  2109  1
 3163  2108  2205  1
 3164  2109  2110  1
 3165  2110  2111  1
 3166  2111  2112  1
 3167  2111  2206  1
 3168  2112  2113  1
 3169  2113  2114  1
 3170  2113  2208  1
 3171  2114  2115  1
 3172  2115  2210  1
 3173  2115  2116  1
 3174  2116  2117  1
 3175  2116  2213  1
 3176  2117  2118  1
 3177  2118  2119  1
 3178  2119  2214  1
 3179  2119  2120  1
 3180  2120  2121  1
 3181  2120  2217  1
 3182  2121  2122  1
 3183  2122  2123  1
 3184  2123  2218  1
 3185  2123  2124  1
 3186  2124  2125  1
 3187  2124  2221  1
 3188  2125  2126  1
 3189  2126  2127  1
 3190  2127  2128  1
 3191  2127  2222  1
 3192  2128  2129  1
 3193  2128  2225  1
 3194  2129  2130  1
 3195  2130  2131  1
 3196  2131  2226  1
 3197  2131  2132  1
 3198  2132  2133  1
 3199  2132  2229  1
 3200  2133  2134  1
 3201  2134  2135  1
 3202  2135  2230  1
 3203  2135  2136  1
 3204  2136  2137  1
 3205  2136  2233  1
 3206  2137  2138  1
 3207  2138  2139  1
 3208  2139  2140  1
 3209  2139  2234  1
 3210  2140  2141  1
 3211  2140  2237  1
 3212  2141  2142  1
 3213  2142  2143  1
 3214  2143  2144  1
 3215  2143  2238  1
 3216  2144  2145  1
 3217  2144  2241  1
 3218  2145  2146  1
 3219  2146  2147  1
 3220  2147  2242  1
 3221  2147  2148  1
 3222  2148  2149  1
 3223  2148  2245  1
 3224  2149  2150  1
 3225  2150  2151  1
 3226  2151  2152  1
 3227  2151  2246  1
 3228  2152  2153  1
 3229  2152  2249  1
 3230  2153  2154  1
 3231  2154  2155  1
 3232  2155  2156  1
 3233  2155  2250  1
 3234  2156  2157  1
 3235  2156  2253  1
 3236  2157  2158  1
 3237  2158  2159  1
 3238  2159  2160  1
 3239  2159  2254  1
 3240  2160  2161  1
 3241  2160  2257  1
 3242  2161  2162  1
 3243  2162  2163  1
 3244  2163  2164  1
 3245  2163  2258  1
 3246  2164  2165  1
 3247  2164  2261  1
 3248  2165  2166  1
 3249  2166  2167  1
 3250  2167  2168  1
 3251  2167  2262  1
 3252  2168  2169  1
 3253  2168  2265  1
 3254  2169  2170  1
 3255  2170  2171  1
 3256  2171  2266  1
 3257  2171  2172  1
 3258  2172  2173  1
 3259  2172  2269  1
 3260  2173  2174  1
 3261  2174  2175  1
 3262  2175  2176  1
 3263  2175  2270  1
 3264  2176  2177  1
 3265  2176  2273  1
 3266  2177  2178  1
 3267  2178  2179  1
 3268  2179  2274  1
 3269  2179  2180  1
 3270  2180  2181  1
 3271  2180  2277  1
 3272  2181  2182  1
 3273  2182  2183  1
 3274  2183  2278  1
 3275  2183  2184  1
 3276  2184  2185  1
 3277  2184  2281  1
 3278  2185  2186  1
 3279  2186  2187  1
 3280  2187  2188  1
 3281  2187  2282  1
 3282  2188  2189  1
 3283  2188  2285  1
 3284  2189  2190  1
 3285  2190  2191  1
 3286  2191  2192  1
 3287  2191  2286  1
 3288  2192  2193  1
 3289  2192  2289  1
 3290  2193  2194  1
 3291  2194  2195  1
 3292  2195  2290  1
 3293  2195  2196  1
 3294  2196  2197  1
 3295  2196  2293  1
 3296  2197  2198  1
 3297  2198  2199  1
 3298  2199  2294  1
 3299  2199  2200  1
 3300  2200  2201  1
 3301  2200  2297  1
 3302  2201  2202  1
 3303  2202  2203  1
 3304  2203  2298  1
 3305  2203  2204  1
 3306  2204  2205  1
 3307  2204  2301  1
 3308  2205  2206  1
 3309  2206  2207  1
 3310  2207  2302  1
 3311  2207  2208  1
 3312  2208  2209  1
 3313  2209  2210  1
 3314  2209  2304  1
 3315  2210  2211  1
 3316  2211  2306  1
 3317  2211  2212  1
 3318  2212  2213  1
 3319  2212  2309  1
 3320  2213  2214  1
 3321  2214  2215  1
 3322  2215  2310  1
 3323  2215  2216  1
 3324  2216  2217  1
 3325  2216  2313  1
 3326  2217  2218  1
 3327  2218  2219  1
 3328  2219  2314  1
 3329  2219  2220  1
 3330  2220  2221  1
 3331  2220  2317  1
 3332  2221  2222  1
 3333  2222  2223  1
 3334  2223  2224  1
 3335  2223  2318  1
 3336  2224  2225  1
 3337  2224  2321  1
 3338  2225  2226  1
 3339  2226  2227  1
 3340  2227  2322  1
 3341  2227  2228  1
 3342  2228  2229  1
 3343  2228  2325  1
 3344  2229  2230  1
 3345  2230  2231  1
 3346  2231  2326  1
 3347  2231  2232  1
 3348  2232  2233  1
 3349  2232  2329  1
 3350  2233  2234  1
 3351  2234  2235  1
 3352  2235  2236  1
 3353  2235  2330  1
 3354  2236  2237  1
 3355  2236  2333  1
 3356  2237  2238  1
 3357  2238  2239  1
 3358  2239  2240  1
 3359  2239  2334  1
 3360  2240  2241  1
 3361  2240  2337  1
 3362  2241  2242  1
 3363  2242  2243  1
 3364  2243  2338  1
 3365  2243  2244  1
 3366  2244  2245  1
 3367  2244  2341  1
 3368  2245  2246  1
 3369  2246  2247  1
 3370  2247  2248  1
 3371  2247  2342  1
 3372  2248  2249  1
 3373  2248  2345  1
 3374  2249  2250  1
 3375  2250  2251  1
 3376  2251  2252  1
 3377  2251  2346  1
 3378  2252  2253  1
 3379  2252  2349  1
 3380  2253  2254  1
 3381  2254  2255  1
 3382  2255  2256  1
 3383  2255  2350  1
 3384  2256  2257  1
 3385  2256  2353  1
 3386  2257  2258  1
 3387  2258  2259  1
 3388  2259  2260  1
 3389  2259  2354  1
 3390  2260  2261  1
 3391  2260  2357  1
 3392  2261  2262  1
 3393  2262  2263  1
 3394  2263  2264  1
 3395  2263  2358  1
 3396  2264  2265  1
 3397  2264  2361  1
 3398  2265  2266  1
 3399  2266  2267  1
 3400  2267  2362  1
 3401  2267  2268  1
 3402  2268  2269  1
 3403  2268  2365  1
 3404  2269  2270  1
 3405  2270  2271  1
 3406  2271  2272  1
 3407  2271  2366  1
 3408  2272  2273  1
 3409  2272  2369  1
 3410  2273  2274  1
 3411  2274  2275  1
 3412  2275  2370  1
 3413  2275  2276  1
 3414  2276  2277  1
 3415  2276  2373  1
 3416  2277  2278  1
 3417  2278  2279  1
 3418  2279  2374  1
 3419  2279  2280  1
 3420  2280  2281  1
 3421  2280  2377  1
 3422  2281  2282  1
 3423  2282  2283  1
 3424  2283  2284  1
 3425  2283  2378  1
 3426  2284  2285  1
 3427  2284  2381  1
 3428  2285  2286  1
 3429  2286  2287  1
 3430  2287  2288  1
 3431  2287  2382  1
 3432  2288  2289  1
 3433  2288  2385  1
 3434  2289  2290  1
 3435  2290  2291  1
 3436  2291  2386  1
 3437  2291  2292  1
 3438  2292  2293  1
 3439  2292  2389  1
 3440  2293  2294  1
 3441  2294  2295  1
 3442  2295  2390  1
 3443  2295  2296  1
 3444  2296  2297  1
 3445  2296  2393  1
 3446  2297  2298  1
 3447  2298  2299  1
 3448  2299  2394  1
 3449  2299  2300  1
 3450  2300  2301  1
 3451  2300  2397  1
 3452  2301  2302  1
 3453  2302  2303  1
 3454  2303  2398  1
 3455  2303  2304  1
 3456  2304  2305  1
 3457  2305  2306  1
 3458  2305  2400  1
 3459  2306  2307  1
 3460  2307  2308  1
 3461  2307  2402  1
 3462  2308  2309  1
 3463  2308  2405  1
 3464  2309  2310  1
 3465  2310  2311  1
 3466  2311  2312  1
 3467  2311  2406  1
 3468  2312  2409  1
 3469  2312  2313  1
 3470  2313  2314  1
 3471  2314  2315  1
 3472  2315  2410  1
 3473  2315  2316  1
 3474  2316  2317  1
 3475  2316  2413  1
 3476  2317  2318  1
 3477  2318  2319  1
 3478  2319  2320  1
 3479  2319  2414  1
 3480  2320  2417  1
 3481  2320  2321  1
 3482  2321  2322  1
 3483  2322  2323  1
 3484  2323  2418  1
 3485  2323  2324  1
 3486  2324  2325  1
 3487  2324  2421  1
 3488  2325  2326  1
 3489  2326  2327  1
 3490  2327  2422  1
 3491  2327  2328  1
 3492  2328  2329  1
 3493  2328  2425  1
 3494  2329  2330  1
 3495  2330  2331  1
 3496  2331  2332  1
 3497  2331  2426  1
 3498  2332  2429  1
 3499  2332  2333  1
 3500  2333  2334  1
 3501  2334  2335  1
 3502  2335  2336  1
 3503  2335  2430  1
 3504  2336  2433  1
 3505  2336  2337  1
 3506  2337  2338  1
 3507  2338  2339  1
 3508  2339  2434  1
 3509  2339  2340  1
 3510  2340  2341  1
 3511  2340  2437  1
 3512  2341  2342  1
 3513  2342  2343  1
 3514  2343  2344  1
 3515  2343  2438  1
 3516  2344  2345  1
 3517  2344  2441  1
 3518  2345  2346  1
 3519  2346  2347  1
 3520  2347  2348  1
 3521  2347  2442  1
 3522  2348  2349  1
 3523  2348  2445  1
 3524  2349  2350  1
 3525  2350  2351  1
 3526  2351  2352  1
 3527  2351  2446  1
 3528  2352  2353  1
 3529  2352  2449  1
 3530  2353  2354  1
 3531  2354  2355  1
 3532  2355  2356  1
 3533  2355  2450  1
 3534  2356  2357  1
 3535  2356  2453  1
 3536  2357  2358  1
 3537  2358  2359  1
 3538  2359  2360  1
 3539  2359  2454  1
 3540  2360  2361  1
 3541  2360  2457  1
 3542  2361  2362  1
 3543  2362  2363  1
 3544  2363  2458  1
 3545  2363  2364  1
 3546  2364  2365  1
 3547  2364  2461  1
 3548  2365  2366  1
 3549  2366  2367  1
 3550  2367  2368  1
 3551  2367  2462  1
 3552  2368  2369  1
 3553  2368  2465  1
 3554  2369  2370  1
 3555  2370  2371  1
 3556  2371  2372  1
 3557  2371  2466  1
 3558  2372  2373  1
 3559  2372  2469  1
 3560  2373  2374  1
 3561  2374  2375  1
 3562  2375  2376  1
 3563  2375  2470  1
 3564  2376  2377  1
 3565  2376  2473  1
 3566  2377  2378  1
 3567  2378  2379  1
 3568  2379  2380  1
 3569  2379  2474  1
 3570  2380  2381  1
 3571  2380  2477  1
 3572  2381  2382  1
 3573  2382  2383  1
 3574  2383  2384  1
 3575  2383  2478  1
 3576  2384  2385  1
 3577  2384  2481  1
 3578  2385  2386  1
 3579  2386  2387  1
 3580  2387  2482  1
 3581  2387  2388  1
 3582  2388  2389  1
 3583  2388  2485  1
 3584  2389  2390  1
 3585  2390  2391  1
 3586  2391  2392  1
 3587  2391  2486  1
 3588  2392  2393  1
 3589  2392  2489  1
 3590  2393  2394  1
 3591  2394  2395  1
 3592  2395  2396  1
 3593  2395  2490  1
 3594  2396  2397  1
 3595  2396  2493  1
 3596  2397  2398  1
 3597  2398  2399  1
 3598  2399  2400  1
 3599  2399  2494  1
 3600  2400  2401  1
 3601  2401  2496  1
 3602  2401  2402  1
 3603  2402  2403  1
 3604  2403  2404  1
 3605  2403  2498  1
 3606  2404  2405  1
 3607  2404  2501  1
 3608  2405  2406  1
 3609  2406  2407  1
 3610  2407  2408  1
 3611  2407  2502  1
 3612  2408  2505  1
 3613  2408  2409  1
 3614  2409  2410  1
 3615  2410  2411  1
 3616  2411  2506  1
 3617  2411  2412  1
 3618  2412  2413  1
 3619  2412  2509  1
 3620  2413  2414  1
 3621  2414  2415  1
 3622  2415  2416  1
 3623  2415  2510  1
 3624  2416  2513  1
 3625  2416  2417  1
 3626  2417  2418  1
 3627  2418  2419  1
 3628  2419  2514  1
 3629  2419  2420  1
 3630  2420  2421  1
 3631  2420  2517  1
 3632  2421  2422  1
 3633  2422  2423  1
 3634  2423  2518  1
 3635  2423  2424  1
 3636  2424  2425  1
 3637  2424  2521  1
 3638  2425  2426  1
 3639  2426  2427  1
 3640  2427  2428  1
 3641  2427  2522  1
 3642  2428  2525  1
 3643  2428  2429  1
 3644  2429  2430  1
 3645  2430  2431  1
 3646  2431  2432  1
 3647  2431  2526  1
 3648  2432  2529  1
 3649  2432  2433  1
 3650  2433  2434  1
 3651  2434  2435  1
 3652  2435  2530  1
 3653  2435  2436  1
 3654  2436  2437  1
 3655  2436  2533  1
 3656  2437  2438  1
 3657  2438  2439  1
 3658  2439  2440  1
 3659  2439  2534  1
 3660  2440  2441  1
 3661  2440  2537  1
 3662  2441  2442  1
 3663  2442  2443  1
 3664  2443  2444  1
 3665  2443  2538  1
 3666  2444  2445  1
 3667  2444  2541  1
 3668  2445  2446  1
 3669  2446  2447  1
 3670  2447  2448  1
 3671  2447  2542  1
 3672  2448  2449  1
 3673  2448  2545  1
 3674  2449  2450  1
 3675  2450  2451  1
 3676  2451  2452  1
 3677  2451  2546  1
 3678  2452  2453  1
 3679  2452  2549  1
 3680  2453  2454  1
 3681  2454  2455  1
 3682  2455  2456  1
 3683  2455  2550  1
 3684  2456  2457  1
 3685  2456  2553  1
 3686  2457  2458  1
 3687  2458  2459  1
 3688  2459  2554  1
 3689  2459  2460  1
 3690  2460  2461  1
 3691  2460  2557  1
 3692  2461  2462  1
 3693  2462  2463  1
 3694  2463  2464  1
 3695  2463  2558  1
 3696  2464  2465  1
 3697  2464  2561  1
 3698  2465  2466  1
 3699  2466  2467  1
 3700  2467  2468  1
 3701  2467  2562  1
 3702  2468  2469  1
 3703  2468  2565  1
 3704  2469  2470  1
 3705  2470  2471  1
 3706  2471  2472  1
 3707  2471  2566  1
 3708  2472  2473  1
 3709  2472  2569  1
 3710  2473  2474  1
 3711  2474  2475  1
 3712  2475  2476  1
 3713  2475  2570  1
 3714  2476  2477  1
 3715  2476  2573  1
 3716  2477  2478  1
 3717  2478  2479  1
 3718  2479  2480  1
 3719  2479  2574  1
 3720  2480  2481  1
 3721  2480  2577  1
 3722  2481  2482  1
 3723  2482  2483  1
 3724  2483  2578  1
 3725  2483  2484  1
 3726  2484  2485  1
 3727  2484  2581  1
 3728  2485  2486  1
 3729  2486  2487  1
 3730  2487  2488  1
 3731  2487  2582  1
 3732  2488  2489  1
 3733  2488  2585  1
 3734  2489  2490  1
 3735  2490  2491  1
 3736  2491  2492  1
 3737  2491  2586  1
 3738  2492  2493  1
 3739  2492  2589  1
 3740  2493  2494  1
 3741  2494  2495  1
 3742  2495  2496  1
 3743  2495  2590  1
 3744  2496  2497  1
 3745  2497  2592  1
 3746  2497  2498  1
 3747  2498  2499  1
 3748  2499  2500  1
 3749  2499  2594  1
 3750  2500  2501  1
 3751  2500  2597  1
 3752  2501  2502  1
 3753  2502  2503  1
 3754  2503  2504  1
 3755  2503  2598  1
 3756  2504  2601  1
 3757  2504  2505  1
 3758  2505  2506  1
 3759  2506  2507  1
 3760  2507  2602  1
 3761  2507  2508  1
 3762  2508  2509  1
 3763  2508  2605  1
 3764  2509  2510  1
 3765  2510  2511  1
 3766  2511  2512  1
 3767  2511  2606  1
 3768  2512  2609  1
 3769  2512  2513  1
 3770  2513  2514  1
 3771  2514  2515  1
 3772  2515  2610  1
 3773  2515  2516  1
 3774  2516  2517  1
 3775  2516  2613  1
 3776  2517  2518  1
 3777  2518  2519  1
 3778  2519  2614  1
 3779  2519  2520  1
 3780  2520  2521  1
 3781  2520  2617  1
 3782  2521  2522  1
 3783  2522  2523  1
 3784  2523  2524  1
 3785  2523  2618  1
 3786  2524  2621  1
 3787  2524  2525  1
 3788  2525  2526  1
 3789  2526  2527  1
 3790  2527  2528  1
 3791  2527  2622  1
 3792  2528  2625  1
 3793  2528  2529  1
 3794  2529  2530  1
 3795  2530  2531  1
 3796  2531  2626  1
 3797  2531  2532  1
 3798  2532  2533  1
 3799  2532  2629  1
 3800  2533  2534  1
 3801  2534  2535  1
 3802  2535  2536  1
 3803  2535  2630  1
 3804  2536  2537  1
 3805  2536  2633  1
 3806  2537  2538  1
 3807  2538  2539  1
 3808  2539  2540  1
 3809  2539  2634  1
 3810  2540  2541  1
 3811  2540  2637  1
 3812  2541  2542  1
 3813  2542  2543  1
 3814  2543  2544  1
 3815  2543  2638  1
 3816  2544  2545  1
 3817  2544  2641  1
 3818  2545  2546  1
 3819  2546  2547  1
 3820  2547  2548  1
 3821  2547  2642  1
 3822  2548  2549  1
 3823  2548  2645  1
 3824  2549  2550  1
 3825  2550  2551  1
 3826  2551  2552  1
 3827  2551  2646  1
 3828  2552  2553  1
 3829  2552  2649  1
 3830  2553  2554  1
 3831  2554  2555  1
 3832  2555  2650  1
 3833  2555  2556  1
 3834  2556  2557  1
 3835  2556  2653  1
 3836  2557  2558  1
 3837  2558  2559  1
 3838  2559  2560  1
 3839  2559  2654  1
 3840  2560  2561  1
 3841  2560  2657  1
 3842  2561  2562  1
 3843  2562  2563  1
 3844  2563  2564  1
 3845  2563  2658  1
 3846  2564  2565  1
 3847  2564  2661  1
 3848  2565  2566  1
 3849  2566  2567  1
 3850  2567  2568  1
 3851  2567  2662  1
 3852  2568  2569  1
 3853  2568  2665  1
 3854  2569  2570  1
 3855  2570  2571  1
 3856  2571  2572  1
 3857  2571  2666  1
 3858  2572  2573  1
 3859  2572  2669  1
 3860  2573  2574  1
 3861  2574  2575  1
 3862  2575  2576  1
 3863  2575  2670  1
 3864  2576  2577  1
 3865  2576  2673  1
 3866  2577  2578  1
 3867  2578  2579  1
 3868  2579  2674  1
 3869  2579  2580  1
 3870  2580  2581  1
 3871  2580  2677  1
 3872  2581  2582  1
 3873  2582  2583  1
 3874  2583  2584  1
 3875  2583  2678  1
 3876  2584  2585  1
 3877  2584  2681  1
 3878  2585  2586  1
 3879  2586  2587  1
 3880  2587  2588  1
 3881  2587  2682  1
 3882  2588  2589  1
 3883  2588  2685  1
 3884  2589  2590  1
 3885  2590  2591  1
 3886  2591  2592  1
 3887  2591  2686  1
 3888  2592  2593  1
 3889  2593  2594  1
 3890  2593  2688  1
 3891  2594  2595  1
 3892  2595  2690  1
 3893  2595  2596  1
 3894  2596  2597  1
 3895  2596  2693  1
 3896  2597  2598  1
 3897  2598  2599  1
 3898  2599  2694  1
 3899  2599  2600  1
 3900  2600  2601  1
 3901  2600  2697  1
 3902  2601  2602  1
 3903  2602  2603  1
 3904  2603  2698  1
 3905  2603  2604  1
 3906  2604  2605  1
 3907  2604  2701  1
 3908  2605  2606  1
 3909  2606  2607  1
 3910  2607  2608  1
 3911  2607  2702  1
 3912  2608  2609  1
 3913  2608  2705  1
 3914  2609  2610  1
 3915  2610  2611  1
 3916  2611  2706  1
 3917  2611  2612  1
 3918  2612  2613  1
 3919  2612  2709  1
 3920  2613  2614  1
 3921  2614  2615  1
 3922  2615  2710  1
 3923  2615  2616  1
 3924  2616  2617  1
 3925  2616  2713  1
 3926  2617  2618  1
 3927  2618  2619  1
 3928  2619  2620  1
 3929  2619  2714  1
 3930  2620  2621  1
 3931  2620  2717  1
 3932  2621  2622  1
 3933  2622  2623  1
 3934  2623  2624  1
 3935  2623  2718  1
 3936  2624  2625  1
 3937  2624  2721  1
 3938  2625  2626  1
 3939  2626  2627  1
 3940  2627  2722  1
 3941  2627  2628  1
 3942  2628  2629  1
 3943  2628  2725  1
 3944  2629  2630  1
 3945  2630  2631  1
 3946  2631  2632  1
 3947  2631  2726  1
 3948  2632  2633  1
 3949  2632  2729  1
 3950  2633  2634  1
 3951  2634  2635  1
 3952  2635  2636  1
 3953  2635  2730  1
 3954  2636  2637  1
 3955  2636  2733  1
 3956  2637  2638  1
 3957  2638  2639  1
 3958  2639  2640  1
 3959  2639  2734  1
 3960  2640  2641  1
 3961  2640  2737  1
 3962  2641  2642  1
 3963  2642  2643  1
 3964  2643  2644  1
 3965  2643  2738  1
 3966  2644  2645  1
 3967  2644  2741  1
 3968  2645  2646  1
 3969  2646  2647  1
 3970  2647  2648  1
 3971  2647  2742  1
 3972  2648  2649  1
 3973  2648  2745  1
 3974  2649  2650  1
 3975  2650  2651  1
 3976  2651  2746  1
 3977  2651  2652  1
 3978  2652  2653  1
 3979  2652  2749  1
 3980  2653  2654  1
 3981  2654  2655  1
 3982  2655  2656  1
 3983  2655  2750  1
 3984  2656  2657  1
 3985  2656  2753  1
 3986  2657  2658  1
 3987  2658  2659  1
 3988  2659  2754  1
 3989  2659  2660  1
 3990  2660  2661  1
 3991  2660  2757  1
 3992  2661  2662  1
 3993  2662  2663  1
 3994  2663  2758  1
 3995  2663  2664  1
 3996  2664  2665  1
 3997  2664  2761  1
 3998  2665  2666  1
 3999  2666  2667  1
 4000  2667  2668  1
 4001  2667  2762  1
 4002  2668  2669  1
 4003  2668  2765  1
 4004  2669  2670  1
 4005  2670  2671  1
 4006  2671  2672  1
 4007  2671  2766  1
 4008  2672  2673  1
 4009  2672  2769  1
 4010  2673  2674  1
 4011  2674  2675  1
 4012  2675  2770  1
 4013  2675  2676  1
 4014  2676  2677  1
 4015  2676  2773  1
 4016  2677  2678  1
 4017  2678  2679  1
 4018  2679  2774  1
 4019  2679  2680  1
 4020  2680  2681  1
 4021  2680  2777  1
 4022  2681  2682  1
 4023  2682  2683  1
 4024  2683  2778  1
 4025  2683  2684  1
 4026  2684  2685  1
 4027  2684  2781  1
 4028  2685  2686  1
 4029  2686  2687  1
 4030  2687  2782  1
 4031  2687  2688  1
 4032  2688  2689  1
 4033  2689  2690  1
 4034  2689  2784  1
 4035  2690  2691  1
 4036  2691  2786  1
 4037  2691  2692  1
 4038  2692  2693  1
 4039  2692  2789  1
 4040  2693  2694  1
 4041  2694  2695  1
 4042  2695  2790  1
 4043  2695  2696  1
 4044  2696  2697  1
 4045  2696  2793  1
 4046  2697  2698  1
 4047  2698  2699  1
 4048  2699  2794  1
 4049  2699  2700  1
 4050  2700  2701  1
 4051  2700  2797  1
 4052  2701  2702  1
 4053  2702  2703  1
 4054  2703  2704  1
 4055  2703  2798  1
 4056  2704  2705  1
 4057  2704  2801  1
 4058  2705  2706  1
 4059  2706  2707  1
 4060  2707  2802  1
 4061  2707  2708  1
 4062  2708  2709  1
 4063  2708  2805  1
 4064  2709  2710  1
 4065  2710  2711  1
 4066  2711  2806  1
 4067  2711  2712  1
 4068  2712  2713  1
 4069  2712  2809  1
 4070  2713  2714  1
 4071  2714  2715  1
 4072  2715  2716  1
 4073  2715  2810  1
 4074  2716  2717  1
 4075  2716  2813  1
 4076  2717  2718  1
 4077  2718  2719  1
 4078  2719  2720  1
 4079  2719  2814  1
 4080  2720  2721  1
 4081  2720  2817  1
 4082  2721  2722  1
 4083  2722  2723  1
 4084  2723  2818  1
 4085  2723  2724  1
 4086  2724  2725  1
 4087  2724  2821  1
 4088  2725  2726  1
 4089  2726  2727  1
 4090  2727  2728  1
 4091  2727  2822  1
 4092  2728  2729  1
 4093  2728  2825  1
 4094  2729  2730  1
 4095  2730  2731  1
 4096  2731  2732  1
 4097  2731  2826  1
 4098  2732  2733  1
 4099  2732  2829  1
 4100  2733  2734  1
 4101  2734  2735  1
 4102  2735  2736  1
 4103  2735  2830  1
 4104  2736  2737  1
 4105  2736  2833  1
 4106  2737  2738  1
 4107  2738  2739  1
 4108  2739  2740  1
 4109  2739  2834  1
 4110  2740  2741  1
 4111  2740  2837  1
 4112  2741  2742  1
 4113  2742  2743  1
 4114  2743  2744  1
 4115  2743  2838  1
 4116  2744  2745  1
 4117  2744  2841  1
 4118  2745  2746  1
 4119  2746  2747  1
 4120  2747  2842  1
 4121  2747  2748  1
 4122  2748  2749  1
 4123  2748  2845  1
 4124  2749  2750  1
 4125  2750  2751  1
 4126  2751  2752  1
 4127  2751  2846  1
 4128  2752  2753  1
 4129  2752  2849  1
 4130  2753  2754  1
 4131  2754  2755  1
 4132  2755  2850  1
 4133  2755  2756  1
 4134  2756  2757  1
 4135  2756  2853  1
 4136  2757  2758  1
 4137  2758  2759  1
 4138  2759  2854  1
 4139  2759  2760  1
 4140  2760  2761  1
 4141  2760  2857  1
 4142  2761  2762  1
 4143  2762  2763  1
 4144  2763  2764  1
 4145  2763  2858  1
 4146  2764  2765  1
 4147  2764  2861  1
 4148  2765  2766  1
 4149  2766  2767  1
 4150  2767  2768  1
 4151  2767  2862  1
 4152  2768  2769  1
 4153  2768  2865  1
 4154  2769  2770  1
 4155  2770  2771  1
 4156  2771  2866  1
 4157  2771  2772  1
 4158  2772  2773  1
 4159  2772  2869  1
 4160  2773  2774  1
 4161  2774  2775  1
 4162  2775  2870  1
 4163  2775  2776  1
 4164  2776  2777  1
 4165  2776  2873  1
 4166  2777  2778  1
 4167  2778  2779  1
 4168  2779  2874  1
 4169  2779  2780  1
 4170  2780  2781  1
 4171  2780  2877  1
 4172  2781  2782  1
 4173  2782  2783  1
 4174  2783  2878  1
 4175  2783  2784  1
 4176  2784  2785  1
 4177  2785  2786  1
 4178  2785  2880  1
 4179  2786  2787  1
 4180  2787  2788  1
 4181  2787  2882  1
 4182  2788  2789  1
 4183  2788  2885  1
 4184  2789  2790  1
 4185  2790  2791  1
 4186  2791  2792  1
 4187  2791  2886  1
 4188  2792  2889  1
 4189  2792  2793  1
 4190  2793  2794  1
 4191  2794  2795  1
 4192  2795  2890  1
 4193  2795  2796  1
 4194  2796  2797  1
 4195  2796  2893  1
 4196  2797  2798  1
 4197  2798  2799  1
 4198  2799  2800  1
 4199  2799  2894  1
 4200  2800  2897  1
 4201  2800  2801  1
 4202  2801  2802  1
 4203  2802  2803  1
 4204  2803  2898  1
 4205  2803  2804  1
 4206  2804  2805  1
 4207  2804  2901  1
 4208  2805  2806  1
 4209  2806  2807  1
 4210  2807  2902  1
 4211  2807  2808  1
 4212  2808  2809  1
 4213  2808  2905  1
 4214  2809  2810  1
 4215  2810  2811  1
 4216  2811  2812  1
 4217  2811  2906  1
 4218  2812  2909  1
 4219  2812  2813  1
 4220  2813  2814  1
 4221  2814  2815  1
 4222  2815  2816  1
 4223  2815  2910  1
 4224  2816  2913  1
 4225  2816  2817  1
 4226  2817  2818  1
 4227  2818  2819  1
 4228  2819  2914  1
 4229  2819  2820  1
 4230  2820  2821  1
 4231  2820  2917  1
 4232  2821  2822  1
 4233  2822  2823  1
 4234  2823  2824  1
 4235  2823  2918  1
 4236  2824  2825  1
 4237  2824  2921  1
 4238  2825  2826  1
 4239  2826  2827  1
 4240  2827  2828  1
 4241  2827  2922  1
 4242  2828  2829  1
 4243  2828  2925  1
 4244  2829  2830  1
 4245  2830  2831  1
 4246  2831  2832  1
 4247  2831  2926  1
 4248  2832  2833  1
 4249  2832  2929  1
 4250  2833  2834  1
 4251  2834  2835  1
 4252  2835  2836  1
 4253  2835  2930  1
 4254  2836  2837  1
 4255  2836  2933  1
 4256  2837  2838  1
 4257  2838  2839  1
 4258  2839  2840  1
 4259  2839  2934  1
 4260  2840  2841  1
 4261  2840  2937  1
 4262  2841  2842  1
 4263  2842  2843  1
 4264  2843  2938  1
 4265  2843  2844  1
 4266  2844  2845  1
 4267  2844  2941  1
 4268  2845  2846  1
 4269  2846  2847  1
 4270  2847  2848  1
 4271  2847  2942  1
 4272  2848  2849  1
 4273  2848  2945  1
 4274  2849  2850  1
 4275  2850  2851  1
 4276  2851  2852  1
 4277  2851  2946  1
 4278  2852  2853  1
 4279  2852  2949  1
 4280  2853  2854  1
 4281  2854  2855  1
 4282  2855  2856  1
 4283  2855  2950  1
 4284  2856  2857  1
 4285  2856  2953  1
 4286  2857  2858  1
 4287  2858  2859  1
 4288  2859  2860  1
 4289  2859  2954  1
 4290  2860  2861  1
 4291  2860  2957  1
 4292  2861  2862  1
 4293  2862  2863  1
 4294  2863  2864  1
 4295  2863  2958  1
 4296  2864  2865  1
 4297  2864  2961  1
 4298  2865  2866  1
 4299  2866  2867  1
 4300  2867  2962  1
 4301  2867  2868  1
 4302  2868  2869  1
 4303  2868  2965  1
 4304  2869  2870  1
 4305  2870  2871  1
 4306  2871  2872  1
 4307  2871  2966  1
 4308  2872  2873  1
 4309  2872  2969  1
 4310  2873  2874  1
 4311  2874  2875  1
 4312  2875  2876  1
 4313  2875  2970  1
 4314  2876  2877  1
 4315  2876  2973  1
 4316  2877  2878  1
 4317  2878  2879  1
 4318  2879  2880  1
 4319  2879  2974  1
 4320  2880  2881  1
 4321  2881  2976  1
 4322  2881  2882  1
 4323  2882  2883  1
 4324  2883  2884  1
 4325  2883  2978  1
 4326  2884  2885  1
 4327  2884  2981  1
 4328  2885  2886  1
 4329  2886  2887  1
 4330  2887  2888  1
 4331  2887  2982  1
 4332  2888  2985  1
 4333  2888  2889  1
 4334  2889  2890  1
 4335  2890  2891  1
 4336  2891  2986  1
 4337  2891  2892  1
 4338  2892  2893  1
 4339  2892  2989  1
 4340  2893  2894  1
 4341  2894  2895  1
 4342  2895  2896  1
 4343  2895  2990  1
 4344  2896  2993  1
 4345  2896  2897  1
 4346  2897  2898  1
 4347  2898  2899  1
 4348  2899  2994  1
 4349  2899  2900  1
 4350  2900  2901  1
 4351  2900  2997  1
 4352  2901  2902  1
 4353  2902  2903  1
 4354  2903  2998  1
 4355  2903  2904  1
 4356  2904  2905  1
 4357  2904  3001  1
 4358  2905  2906  1
 4359  2906  2907  1
 4360  2907  2908  1
 4361  2907  3002  1
 4362  2908  3005  1
 4363  2908  2909  1
 4364  2909  2910  1
 4365  2910  2911  1
 4366  2911  2912  1
 4367  2911  3006  1
 4368  2912  3009  1
 4369  2912  2913  1
 4370  2913  2914  1
 4371  2914  2915  1
 4372  2915  3010  1
 4373  2915  2916  1
 4374  2916  2917  1
 4375  2916  3013  1
 4376  2917  2918  1
 4377  2918  2919  1
 4378  2919  2920  1
 4379  2919  3014  1
 4380  2920  2921  1
 4381  2920  3017  1
 4382  2921  2922  1
 4383  2922  2923  1
 4384  2923  2924  1
 4385  2923  3018  1
 4386  2924  2925  1
 4387  2924  3021  1
 4388  2925  2926  1
 4389  2926  2927  1
 4390  2927  2928  1
 4391  2927  3022  1
 4392  2928  2929  1
 4393  2928  3025  1
 4394  2929  2930  1
 4395  2930  2931  1
 4396  2931  2932  1
 4397  2931  3026  1
 4398  2932  2933  1
 4399  2932  3029  1
 4400  2933  2934  1
 4401  2934  2935  1
 4402  2935  2936  1
 4403  2935  3030  1
 4404  2936  2937  1
 4405  2936  3033  1
 4406  2937  2938  1
 4407  2938  2939  1
 4408  2939  3034  1
 4409  2939  2940  1
 4410  2940  2941  1
 4411  2940  3037  1
 4412  2941  2942  1
 4413  2942  2943  1
 4414  2943  2944  1
 4415  2943  3038  1
 4416  2944  2945  1
 4417  2944  3041  1
 4418  2945  2946  1
 4419  2946  2947  1
 4420  2947  2948  1
 4421  2947  3042  1
 4422  2948  2949  1
 4423  2948  3045  1
 4424  2949  2950  1
 4425  2950  2951  1
 4426  2951  2952  1
 4427  2951  3046  1
 4428  2952  2953  1
 4429  2952  3049  1
 4430  2953  2954  1
 4431  2954  2955  1
 4432  2955  2956  1
 4433  2955  3050  1
 4434  2956  2957  1
 4435  2956  3053  1
 4436  2957  2958  1
 4437  2958  2959  1
 4438  2959  2960  1
 4439  2959  3054  1
 4440  2960  2961  1
 4441  2960  3057  1
 4442  2961  2962  1
 4443  2962  2963  1
 4444  2963  3058  1
 4445  2963  2964  1
 4446  2964  2965  1
 4447  2964  3061  1
 4448  2965  2966  1
 4449  2966  2967  1
 4450  2967  2968  1
 4451  2967  3062  1
 4452  2968  2969  1
 4453  2968  3065  1
 4454  2969  2970  1
 4455  2970  2971  1
 4456  2971  2972  1
 4457  2971  3066  1
 4458  2972  2973  1
 4459  2972  3069  1
 4460  2973  2974  1
 4461  2974  2975  1
 4462  2975  2976  1
 4463  2975  3070  1
 4464  2976  2977  1
 4465  2977  3072  1
 4466  2977  2978  1
 4467  2978  2979  1
 4468  2979  2980  1
 4469  2979  3074  1
 4470  2980  2981  1
 4471  2980  3077  1
 4472  2981  2982  1
 4473  2982  2983  1
 4474  2983  2984  1
 4475  2983  3078  1
 4476  2984  3081  1
 4477  2984  2985  1
 4478  2985  2986  1
 4479  2986  2987  1
 4480  2987  3082  1
 4481  2987  2988  1
 4482  2988  2989  1
 4483  2988  3085  1
 4484  2989  2990  1
 4485  2990  2991  1
 4486  2991  2992  1
 4487  2991  3086  1
 4488  2992  3089  1
 4489  2992  2993  1
 4490  2993  2994  1
 4491  2994  2995  1
 4492  2995  3090  1
 4493  2995  2996  1
 4494  2996  2997  1
 4495  2996  3093  1
 4496  2997  2998  1
 4497  2998  2999  1
 4498  2999  3094  1
 4499  2999  3000  1
 4500  3000  3001  1
 4501  3000  3097  1
 4502  3001  3002  1
 4503  3002  3003  1
 4504  3003  3004  1
 4505  3003  3098  1
 4506  3004  3101  1
 4507  3004  3005  1
 4508  3005  3006  1
 4509  3006  3007  1
 4510  3007  3008  1
 4511  3007  3102  1
 4512  3008  3105  1
 4513  3008  3009  1
 4514  3009  3010  1
 4515  3010  3011  1
 4516  3011  3106  1
 4517  3011  3012  1
 4518  3012  3013  1
 4519  3012  3109  1
 4520  3013  3014  1
 4521  3014  3015  1
 4522  3015  3016  1
 4523  3015  3110  1
 4524  3016  3017  1
 4525  3016  3113  1
 4526  3017  3018  1
 4527  3018  3019  1
 4528  3019  3020  1
 4529  3019  3114  1
 4530  3020  3021  1
 4531  3020  3117  1
 4532  3021  3022  1
 4533  3022  3023  1
 4534  3023  3024  1
 4535  3023  3118  1
 4536  3024  3025  1
 4537  3024  3121  1
 4538  3025  3026  1
 4539  3026  3027  1
 4540  3027  3028  1
 4541  3027  3122  1
 4542  3028  3029  1
 4543  3028  3125  1
 4544  3029  3030  1
 4545  3030  3031  1
 4546  3031  3032  1
 4547  3031  3126  1
 4548  3032  3033  1
 4549  3032  3129  1
 4550  3033  3034  1
 4551  3034  3035  1
 4552  3035  3130  1
 4553  3035  3036  1
 4554  3036  3037  1
 4555  3036  3133  1
 4556  3037  3038  1
 4557  3038  3039  1
 4558  3039  3040  1
 4559  3039  3134  1
 4560  3040  3041  1
 4561  3040  3137  1
 4562  3041  3042  1
 4563  3042  3043  1
 4564  3043  3044  1
 4565  3043  3138  1
 4566  3044  3045  1
 4567  3044  3141  1
 4568  3045  3046  1
 4569  3046  3047  1
 4570  3047  3048  1
 4571  3047  3142  1
 4572  3048  3049  1
 4573  3048  3145  1
 4574  3049  3050  1
 4575  3050  3051  1
 4576  3051  3052  1
 4577  3051  3146  1
 4578  3052  3053  1
 4579  3052  3149  1
 4580  3053  3054  1
 4581  3054  3055  1
 4582  3055  3056  1
 4583  3055  3150  1
 4584  3056  3057  1
 4585  3056  3153  1
 4586  3057  3058  1
 4587  3058  3059  1
 4588  3059  3154  1
 4589  3059  3060  1
 4590  3060  3061  1
 4591  3060  3157  1
 4592  3061  3062  1
 4593  3062  3063  1
 4594  3063  3064  1
 4595  3063  3158  1
 4596  3064  3065  1
 4597  3064  3161  1
 4598  3065  3066  1
 4599  3066  3067  1
 4600  3067  3068  1
 4601  3067  3162  1
 4602  3068  3069  1
 4603  3068  3165  1
 4604  3069  3070  1
 4605  3070  3071  1
 4606  3071  3072  1
 4607  3071  3166  1
 4608  3072  3073  1
 4609  3073  3074  1
 4610  3073  3168  1
 4611  3074  3075  1
 4612  3075  3170  1
 4613  3075  3076  1
 4614  3076  3077  1
 4615  3076  3173  1
 4616  3077  3078  1
 4617  3078  3079  1
 4618  3079  3174  1
 4619  3079  3080  1
 4620  3080  3081  1
 4621  3080  3177  1
 4622  3081  3082  1
 4623  3082  3083  1
 4624  3083  3178  1
 4625  3083  3084  1
 4626  3084  3085  1
 4627  3084  3181  1
 4628  3085  3086  1
 4629  3086  3087  1
 4630  3087  3088  1
 4631  3087  3182  1
 4632  3088  3089  1
 4633  3088  3185  1
 4634  3089  3090  1
 4635  3090  3091  1
 4636  3091  3186  1
 4637  3091  3092  1
 4638  3092  3093  1
 4639  3092  3189  1
 4640  3093  3094  1
 4641  3094  3095  1
 4642  3095  3190  1
 4643  3095  3096  1
 4644  3096  3097  1
 4645  3096  3193  1
 4646  3097  3098  1
 4647  3098  3099  1
 4648  3099  3100  1
 4649  3099  3194  1
 4650  3100  3101  1
 4651  3100  3197  1
 4652  3101  3102  1
 4653  3102  3103  1
 4654  3103  3104  1
 4655  3103  3198  1
 4656  3104  3105  1
 4657  3104  3201  1
 4658  3105  3106  1
 4659  3106  3107  1
 4660  3107  3202  1
 4661  3107  3108  1
 4662  3108  3109  1
 4663  3108  3205  1
 4664  3109  3110  1
 4665  3110  3111  1
 4666  3111  3112  1
 4667  3111  3206  1
 4668  3112  3113  1
 4669  3112  3209  1
 4670  3113  3114  1
 4671  3114  3115  1
 4672  3115  3116  1
 4673  3115  3210  1
 4674  3116  3117  1
 4675  3116  3213  1
 4676  3117  3118  1
 4677  3118  3119  1
 4678  3119  3120  1
 4679  3119  3214  1
 4680  3120  3121  1
 4681  3120  3217  1
 4682  3121  3122  1
 4683  3122  3123  1
 4684  3123  3124  1
 4685  3123  3218  1
 4686  3124  3125  1
 4687  3124  3221  1
 4688  3125  3126  1
 4689  3126  3127  1
 4690  3127  3128  1
 4691  3127  3222  1
 4692  3128  3129  1
 4693  3128  3225  1
 4694  3129  3130  1
 4695  3130  3131  1
 4696  3131  3226  1
 4697  3131  3132  1
 4698  3132  3133  1
 4699  3132  3229  1
 4700  3133  3134  1
 4701  3134  3135  1
 4702  3135  3136  1
 4703  3135  3230  1
 4704  3136  3137  1
 4705  3136  3233  1
 4706  3137  3138  1
 4707  3138  3139  1
 4708  3139  3234  1
 4709  3139  3140  1
 4710  3140  3141  1
 4711  3140  3237  1
 4712  3141  3142  1
 4713  3142  3143  1
 4714  3143  3238  1
 4715  3143  3144  1
 4716  3144  3145  1
 4717  3144  3241  1
 4718  3145  3146  1
 4719  3146  3147  1
 4720  3147  3148  1
 4721  3147  3242  1
 4722  3148  3149  1
 4723  3148  3245  1
 4724  3149  3150  1
 4725  3150  3151  1
 4726  3151  3152  1
 4727  3151  3246  1
 4728  3152  3153  1
 4729  3152  3249  1
 4730  3153  3154  1
 4731  3154  3155  1
 4732  3155  3250  1
 4733  3155  3156  1
 4734  3156  3157  1
 4735  3156  3253  1
 4736  3157  3158  1
 4737  3158  3159  1
 4738  3159  3254  1
 4739  3159  3160  1
 4740  3160  3161  1
 4741  3160  3257  1
 4742  3161  3162  1
 4743  3162  3163  1
 4744  3163  3258  1
 4745  3163  3164  1
 4746  3164  3165  1
 4747  3164  3261  1
 4748  3165  3166  1
 4749  3166  3167  1
 4750  3167  3262  1
 4751  3167  3168  1
 4752  3168  3169  1
 4753  3169  3170  1
 4754  3169  3264  1
 4755  3170  3171  1
 4756  3171  3266  1
 4757  3171  3172  1
 4758  3172  3173  1
 4759  3172  3269  1
 4760  3173  3174  1
 4761  3174  3175  1
 4762  3175  3270  1
 4763  3175  3176  1
 4764  3176  3177  1
 4765  3176  3273  1
 4766  3177  3178  1
 4767  3178  3179  1
 4768  3179  3274  1
 4769  3179  3180  1
 4770  3180  3181  1
 4771  3180  3277  1
 4772  3181  3182  1
 4773  3182  3183  1
 4774  3183  3184  1
 4775  3183  3278  1
 4776  3184  3185  1
 4777  3184  3281  1
 4778  3185  3186  1
 4779  3186  3187  1
 4780  3187  3282  1
 4781  3187  3188  1
 4782  3188  3189  1
 4783  3188  3285  1
 4784  3189  3190  1
 4785  3190  3191  1
 4786  3191  3286  1
 4787  3191  3192  1
 4788  3192  3193  1
 4789  3192  3289  1
 4790  3193  3194  1
 4791  3194  3195  1
 4792  3195  3196  1
 4793  3195  3290  1
 4794  3196  3197  1
 4795  3196  3293  1
 4796  3197  3198  1
 4797  3198  3199  1
 4798  3199  3200  1
 4799  3199  3294  1
 4800  3200  3201  1
 4801  3200  3297  1
 4802  3201  3202  1
 4803  3202  3203  1
 4804  3203  3298  1
 4805  3203  3204  1
 4806  3204  3205  1
 4807  3204  3301  1
 4808  3205  3206  1
 4809  3206  3207  1
 4810  3207  3208  1
 4811  3207  3302  1
 4812  3208  3209  1
 4813  3208  3305  1
 4814  3209  3210  1
 4815  3210  3211  1
 4816  3211  3212  1
 4817  3211  3306  1
 4818  3212  3213  1
 4819  3212  3309  1
 4820  3213  3214  1
 4821  3214  3215  1
 4822  3215  3216  1
 4823  3215  3310  1
 4824  3216  3217  1
 4825  3216  3313  1
 4826  3217  3218  1
 4827  3218  3219  1
 4828  3219  3220  1
 4829  3219  3314  1
 4830  3220  3221  1
 4831  3220  3317  1
 4832  3221  3222  1
 4833  3222  3223  1
 4834  3223  3224  1
 4835  3223  3318  1
 4836  3224  3225  1
 4837  3224  3321  1
 4838  3225  3226  1
 4839  3226  3227  1
 4840  3227  3322  1
 4841  3227  3228  1
 4842  3228  3229  1
 4843  3228  3325  1
 4844  3229  3230  1
 4845  3230  3231  1
 4846  3231  3232  1
 4847  3231  3326  1
 4848  3232  3233  1
 4849  3232  3329  1
 4850  3233  3234  1
 4851  3234  3235  1
 4852  3235  3330  1
 4853  3235  3236  1
 4854  3236  3237  1
 4855  3236  3333  1
 4856  3237  3238  1
 4857  3238  3239  1
 4858  3239  3334  1
 4859  3239  3240  1
 4860  3240  3241  1
 4861  3240  3337  1
 4862  3241  3242  1
 4863  3242  3243  1
 4864  3243  3244  1
 4865  3243  3338  1
 4866  3244  3245  1
 4867  3244  3341  1
 4868  3245  3246  1
 4869  3246  3247  1
 4870  3247  3248  1
 4871  3247  3342  1
 4872  3248  3249  1
 4873  3248  3345  1
 4874  3249  3250  1
 4875  3250  3251  1
 4876  3251  3346  1
 4877  3251  3252  1
 4878  3252  3253  1
 4879  3252  3349  1
 4880  3253  3254  1
 4881  3254  3255  1
 4882  3255  3350  1
 4883  3255  3256  1
 4884  3256  3257  1
 4885  3256  3353  1
 4886  3257  3258  1
 4887  3258  3259  1
 4888  3259  3354  1
 4889  3259  3260  1
 4890  3260  3261  1
 4891  3260  3357  1
 4892  3261  3262  1
 4893  3262  3263  1
 4894  3263  3358  1
 4895  3263  3264  1
 4896  3264  3265  1
 4897  3265  3266  1
 4898  3265  3360  1
 4899  3266  3267  1
 4900  3267  3268  1
 4901  3267  3362  1
 4902  3268  3269  1
 4903  3268  3365  1
 4904  3269  3270  1
 4905  3270  3271  1
 4906  3271  3272  1
 4907  3271  3366  1
 4908  3272  3369  1
 4909  3272  3273  1
 4910  3273  3274  1
 4911  3274  3275  1
 4912  3275  3370  1
 4913  3275  3276  1
 4914  3276  3277  1
 4915  3276  3373  1
 4916  3277  3278  1
 4917  3278  3279  1
 4918  3279  3280  1
 4919  3279  3374  1
 4920  3280  3377  1
 4921  3280  3281  1
 4922  3281  3282  1
 4923  3282  3283  1
 4924  3283  3378  1
 4925  3283  3284  1
 4926  3284  3285  1
 4927  3284  3381  1
 4928  3285  3286  1
 4929  3286  3287  1
 4930  3287  3382  1
 4931  3287  3288  1
 4932  3288  3289  1
 4933  3288  3385  1
 4934  3289  3290  1
 4935  3290  3291  1
 4936  3291  3292  1
 4937  3291  3386  1
 4938  3292  3389  1
 4939  3292  3293  1
 4940  3293  3294  1
 4941  3294  3295  1
 4942  3295  3296  1
 4943  3295  3390  1
 4944  3296  3393  1
 4945  3296  3297  1
 4946  3297  3298  1
 4947  3298  3299  1
 4948  3299  3394  1
 4949  3299  3300  1
 4950  3300  3301  1
 4951  3300  3397  1
 4952  3301  3302  1
 4953  3302  3303  1
 4954  3303  3304  1
 4955  3303  3398  1
 4956  3304  3305  1
 4957  3304  3401  1
 4958  3305  3306  1
 4959  3306  3307  1
 4960  3307  3308  1
 4961  3307  3402  1
 4962  3308  3309  1
 4963  3308  3405  1
 4964  3309  3310  1
 4965  3310  3311  1
 4966  3311  3312  1
 4967  3311  3406  1
 4968  3312  3313  1
 4969  3312  3409  1
 4970  3313  3314  1
 4971  3314  3315  1
 4972  3315  3316  1
 4973  3315  3410  1
 4974  3316  3317  1
 4975  3316  3413  1
 4976  3317  3318  1
 4977  3318  3319  1
 4978  3319  3320  1
 4979  3319  3414  1
 4980  3320  3321  1
 4981  3320  3417  1
 4982  3321  3322  1
 4983  3322  3323  1
 4984  3323  3418  1
 4985  3323  3324  1
 4986  3324  3325  1
 4987  3324  3421  1
 4988  3325  3326  1
 4989  3326  3327  1
 4990  3327  3328  1
 4991  3327  3422  1
 4992  3328  3329  1
 4993  3328  3425  1
 4994  3329  3330  1
 4995  3330  3331  1
 4996  3331  3332  1
 4997  3331  3426  1
 4998  3332  3333  1
 4999  3332  3429  1
 5000  3333  3334  1
 5001  3334  3335  1
 5002  3335  3336  1
 5003  3335  3430  1
 5004  3336  3337  1
 5005  3336  3433  1
 5006  3337  3338  1
 5007  3338  3339  1
 5008  3339  3340  1
 5009  3339  3434  1
 5010  3340  3341  1
 5011  3340  3437  1
 5012  3341  3342  1
 5013  3342  3343  1
 5014  3343  3344  1
 5015  3343  3438  1
 5016  3344  3345  1
 5017  3344  3441  1
 5018  3345  3346  1
 5019  3346  3347  1
 5020  3347  3442  1
 5021  3347  3348  1
 5022  3348  3349  1
 5023  3348  3445  1
 5024  3349  3350  1
 5025  3350  3351  1
 5026  3351  3352  1
 5027  3351  3446  1
 5028  3352  3353  1
 5029  3352  3449  1
 5030  3353  3354  1
 5031  3354  3355  1
 5032  3355  3356  1
 5033  3355  3450  1
 5034  3356  3357  1
 5035  3356  3453  1
 5036  3357  3358  1
 5037  3358  3359  1
 5038  3359  3360  1
 5039  3359  3454  1
 5040  3360  3361  1
 5041  3361  3456  1
 5042  3361  3362  1
 5043  3362  3363  1
 5044  3363  3364  1
 5045  3363  3458  1
 5046  3364  3365  1
 5047  3364  3461  1
 5048  3365  3366  1
 5049  3366  3367  1
 5050  3367  3368  1
 5051  3367  3462  1
 5052  3368  3465  1
 5053  3368  3369  1
 5054  3369  3370  1
 5055  3370  3371  1
 5056  3371  3466  1
 5057  3371  3372  1
 5058  3372  3373  1
 5059  3372  3469  1
 5060  3373  3374  1
 5061  3374  3375  1
 5062  3375  3376  1
 5063  3375  3470  1
 5064  3376  3473  1
 5065  3376  3377  1
 5066  3377  3378  1
 5067  3378  3379  1
 5068  3379  3474  1
 5069  3379  3380  1
 5070  3380  3381  1
 5071  3380  3477  1
 5072  3381  3382  1
 5073  3382  3383  1
 5074  3383  3478  1
 5075  3383  3384  1
 5076  3384  3385  1
 5077  3384  3481  1
 5078  3385  3386  1
 5079  3386  3387  1
 5080  3387  3388  1
 5081  3387  3482  1
 5082  3388  3485  1
 5083  3388  3389  1
 5084  3389  3390  1
 5085  3390  3391  1
 5086  3391  3392  1
 5087  3391  3486  1
 5088  3392  3489  1
 5089  3392  3393  1
 5090  3393  3394  1
 5091  3394  3395  1
 5092  3395  3490  1
 5093  3395  3396  1
 5094  3396  3397  1
 5095  3396  3493  1
 5096  3397  3398  1
 5097  3398  3399  1
 5098  3399  3400  1
 5099  3399  3494  1
 5100  3400  3401  1
 5101  3400  3497  1
 5102  3401  3402  1
 5103  3402  3403  1
 5104  3403  3404  1
 5105  3403  3498  1
 5106  3404  3405  1
 5107  3404  3501  1
 5108  3405  3406  1
 5109  3406  3407  1
 5110  3407  3408  1
 5111  3407  3502  1
 5112  3408  3409  1
 5113  3408  3505  1
 5114  3409  3410  1
 5115  3410  3411  1
 5116  3411  3412  1
 5117  3411  3506  1
 5118  3412  3413  1
 5119  3412  3509  1
 5120  3413  3414  1
 5121  3414  3415  1
 5122  3415  3416  1
 5123  3415  3510  1
 5124  3416  3417  1
 5125  3416  3513  1
 5126  3417  3418  1
 5127  3418  3419  1
 5128  3419  3514  1
 5129  3419  3420  1
 5130  3420  3421  1
 5131  3420  3517  1
 5132  3421  3422  1
 5133  3422  3423  1
 5134  3423  3424  1
 5135  3423  3518  1
 5136  3424  3425  1
 5137  3424  3521  1
 5138  3425  3426  1
 5139  3426  3427  1
 5140  3427  3428  1
 5141  3427  3522  1
 5142  3428  3429  1
 5143  3428  3525  1
 5144  3429  3430  1
 5145  3430  3431  1
 5146  3431  3432  1
 5147  3431  3526  1
 5148  3432  3433  1
 5149  3432  3529  1
 5150  3433  3434  1
 5151  3434  3435  1
 5152  3435  3436  1
 5153  3435  3530  1
 5154  3436  3437  1
 5155  3436  3533  1
 5156  3437  3438  1
 5157  3438  3439  1
 5158  3439  3440  1
 5159  3439  3534  1
 5160  3440  3441  1
 5161  3440  3537  1
 5162  3441  3442  1
 5163  3442  3443  1
 5164  3443  3538  1
 5165  3443  3444  1
 5166  3444  3445  1
 5167  3444  3541  1
 5168  3445  3446  1
 5169  3446  3447  1
 5170  3447  3448  1
 5171  3447  3542  1
 5172  3448  3449  1
 5173  3448  3545  1
 5174  3449  3450  1
 5175  3450  3451  1
 5176  3451  3452  1
 5177  3451  3546  1
 5178  3452  3453  1
 5179  3452  3549  1
 5180  3453  3454  1
 5181  3454  3455  1
 5182  3455  3456  1
 5183  3455  3550  1
 5184  3456  3457  1
 5185  3457  3552  1
 5186  3457  3458  1
 5187  3458  3459  1
 5188  3459  3460  1
 5189  3459  3554  1
 5190  3460  3461  1
 5191  3460  3557  1
 5192  3461  3462  1
 5193  3462  3463  1
 5194  3463  3464  1
 5195  3463  3558  1
 5196  3464  3561  1
 5197  3464  3465  1
 5198  3465  3466  1
 5199  3466  3467  1
 5200  3467  3562  1
 5201  3467  3468  1
 5202  3468  3469  1
 5203  3468  3565  1
 5204  3469  3470  1
 5205  3470  3471  1
 5206  3471  3472  1
 5207  3471  3566  1
 5208  3472  3569  1
 5209  3472  3473  1
 5210  3473  3474  1
 5211  3474  3475  1
 5212  3475  3570  1
 5213  3475  3476  1
 5214  3476  3477  1
 5215  3476  3573  1
 5216  3477  3478  1
 5217  3478  3479  1
 5218  3479  3574  1
 5219  3479  3480  1
 5220  3480  3481  1
 5221  3480  3577  1
 5222  3481  3482  1
 5223  3482  3483  1
 5224  3483  3484  1
 5225  3483  3578  1
 5226  3484  3581  1
 5227  3484  3485  1
 5228  3485  3486  1
 5229  3486  3487  1
 5230  3487  3488  1
 5231  3487  3582  1
 5232  3488  3585  1
 5233  3488  3489  1
 5234  3489  3490  1
 5235  3490  3491  1
 5236  3491  3586  1
 5237  3491  3492  1
 5238  3492  3493  1
 5239  3492  3589  1
 5240  3493  3494  1
 5241  3494  3495  1
 5242  3495  3496  1
 5243  3495  3590  1
 5244  3496  3497  1
 5245  3496  3593  1
 5246  3497  3498  1
 5247  3498  3499  1
 5248  3499  3500  1
 5249  3499  3594  1
 5250  3500  3501  1
 5251  3500  3597  1
 5252  3501  3502  1
 5253  3502  3503  1
 5254  3503  3504  1
 5255  3503  3598  1
 5256  3504  3505  1
 5257  3504  3601  1
 5258  3505  3506  1
 5259  3506  3507  1
 5260  3507  3508  1
 5261  3507  3602  1
 5262  3508  3509  1
 5263  3508  3605  1
 5264  3509  3510  1
 5265  3510  3511  1
 5266  3511  3512  1
 5267  3511  3606  1
 5268  3512  3513  1
 5269  3512  3609  1
 5270  3513  3514  1
 5271  3514  3515  1
 5272  3515  3610  1
 5273  3515  3516  1
 5274  3516  3517  1
 5275  3516  3613  1
 5276  3517  3518  1
 5277  3518  3519  1
 5278  3519  3520  1
 5279  3519  3614  1
 5280  3520  3521  1
 5281  3520  3617  1
 5282  3521  3522  1
 5283  3522  3523  1
 5284  3523  3524  1
 5285  3523  3618  1
 5286  3524  3525  1
 5287  3524  3621  1
 5288  3525  3526  1
 5289  3526  3527  1
 5290  3527  3528  1
 5291  3527  3622  1
 5292  3528  3529  1
 5293  3528  3625  1
 5294  3529  3530  1
 5295  3530  3531  1
 5296  3531  3532  1
 5297  3531  3626  1
 5298  3532  3533  1
 5299  3532  3629  1
 5300  3533  3534  1
 5301  3534  3535  1
 5302  3535  3536  1
 5303  3535  3630  1
 5304  3536  3537  1
 5305  3536  3633  1
 5306  3537  3538  1
 5307  3538  3539  1
 5308  3539  3634  1
 5309  3539  3540  1
 5310  3540  3541  1
 5311  3540  3637  1
 5312  3541  3542  1
 5313  3542  3543  1
 5314  3543  3544  1
 5315  3543  3638  1
 5316  3544  3545  1
 5317  3544  3641  1
 5318  3545  3546  1
 5319  3546  3547  1
 5320  3547  3548  1
 5321  3547  3642  1
 5322  3548  3549  1
 5323  3548  3645  1
 5324  3549  3550  1
 5325  3550  3551  1
 5326  3551  3552  1
 5327  3551  3646  1
 5328  3552  3553  1
 5329  3553  3554  1
 5330  3553  3648  1
 5331  3554  3555  1
 5332  3555  3650  1
 5333  3555  3556  1
 5334  3556  3557  1
 5335  3556  3653  1
 5336  3557  3558  1
 5337  3558  3559  1
 5338  3559  3654  1
 5339  3559  3560  1
 5340  3560  3561  1
 5341  3560  3657  1
 5342  3561  3562  1
 5343  3562  3563  1
 5344  3563  3658  1
 5345  3563  3564  1
 5346  3564  3565  1
 5347  3564  3661  1
 5348  3565  3566  1
 5349  3566  3567  1
 5350  3567  3568  1
 5351  3567  3662  1
 5352  3568  3569  1
 5353  3568  3665  1
 5354  3569  3570  1
 5355  3570  3571  1
 5356  3571  3666  1
 5357  3571  3572  1
 5358  3572  3573  1
 5359  3572  3669  1
 5360  3573  3574  1
 5361  3574  3575  1
 5362  3575  3670  1
 5363  3575  3576  1
 5364  3576  3577  1
 5365  3576  3673  1
 5366  3577  3578  1
 5367  3578  3579  1
 5368  3579  3580  1
 5369  3579  3674  1
 5370  3580  3581  1
 5371  3580  3677  1
 5372  3581  3582  1
 5373  3582  3583  1
 5374  3583  3584  1
 5375  3583  3678  1
 5376  3584  3585  1
 5377  3584  3681  1
 5378  3585  3586  1
 5379  3586  3587  1
 5380  3587  3682  1
 5381  3587  3588  1
 5382  3588  3589  1
 5383  3588  3685  1
 5384  3589  3590  1
 5385  3590  3591  1
 5386  3591  3592  1
 5387  3591  3686  1
 5388  3592  3593  1
 5389  3592  3689  1
 5390  3593  3594  1
 5391  3594  3595  1
 5392  3595  3596  1
 5393  3595  3690  1
 5394  3596  3597  1
 5395  3596  3693  1
 5396  3597  3598  1
 5397  3598  3599  1
 5398  3599  3600  1
 5399  3599  3694  1
 5400  3600  3601  1
 5401  3600  3697  1
 5402  3601  3602  1
 5403  3602  3603  1
 5404  3603  3604  1
 5405  3603  3698  1
 5406  3604  3605  1
 5407  3604  3701  1
 5408  3605  3606  1
 5409  3606  3607  1
 5410  3607  3608  1
 5411  3607  3702  1
 5412  3608  3609  1
 5413  3608  3705  1
 5414  3609  3610  1
 5415  3610  3611  1
 5416  3611  3706  1
 5417  3611  3612  1
 5418  3612  3613  1
 5419  3612  3709  1
 5420  3613  3614  1
 5421  3614  3615  1
 5422  3615  3616  1
 5423  3615  3710  1
 5424  3616  3617  1
 5425  3616  3713  1
 5426  3617  3618  1
 5427  3618  3619  1
 5428  3619  3714  1
 5429  3619  3620  1
 5430  3620  3621  1
 5431  3620  3717  1
 5432  3621  3622  1
 5433  3622  3623  1
 5434  3623  3718  1
 5435  3623  3624  1
 5436  3624  3625  1
 5437  3624  3721  1
 5438  3625  3626  1
 5439  3626  3627  1
 5440  3627  3628  1
 5441  3627  3722  1
 5442  3628  3629  1
 5443  3628  3725  1
 5444  3629  3630  1
 5445  3630  3631  1
 5446  3631  3632  1
 5447  3631  3726  1
 5448  3632  3633  1
 5449  3632  3729  1
 5450  3633  3634  1
 5451  3634  3635  1
 5452  3635  3730  1
 5453  3635  3636  1
 5454  3636  3637  1
 5455  3636  3733  1
 5456  3637  3638  1
 5457  3638  3639  1
 5458  3639  3734  1
 5459  3639  3640  1
 5460  3640  3641  1
 5461  3640  3737  1
 5462  3641  3642  1
 5463  3642  3643  1
 5464  3643  3738  1
 5465  3643  3644  1
 5466  3644  3645  1
 5467  3644  3741  1
 5468  3645  3646  1
 5469  3646  3647  1
 5470  3647  3742  1
 5471  3647  3648  1
 5472  3648  3649  1
 5473  3649  3650  1
 5474  3649  3744  1
 5475  3650  3651  1
 5476  3651  3746  1
 5477  3651  3652  1
 5478  3652  3653  1
 5479  3652  3749  1
 5480  3653  3654  1
 5481  3654  3655  1
 5482  3655  3750  1
 5483  3655  3656  1
 5484  3656  3657  1
 5485  3656  3753  1
 5486  3657  3658  1
 5487  3658  3659  1
 5488  3659  3754  1
 5489  3659  3660  1
 5490  3660  3661  1
 5491  3660  3757  1
 5492  3661  3662  1
 5493  3662  3663  1
 5494  3663  3664  1
 5495  3663  3758  1
 5496  3664  3665  1
 5497  3664  3761  1
 5498  3665  3666  1
 5499  3666  3667  1
 5500  3667  3762  1
 5501  3667  3668  1
 5502  3668  3669  1
 5503  3668  3765  1
 5504  3669  3670  1
 5505  3670  3671  1
 5506  3671  3766  1
 5507  3671  3672  1
 5508  3672  3673  1
 5509  3672  3769  1
 5510  3673  3674  1
 5511  3674  3675  1
 5512  3675  3676  1
 5513  3675  3770  1
 5514  3676  3677  1
 5515  3676  3773  1
 5516  3677  3678  1
 5517  3678  3679  1
 5518  3679  3680  1
 5519  3679  3774  1
 5520  3680  3681  1
 5521  3680  3777  1
 5522  3681  3682  1
 5523  3682  3683  1
 5524  3683  3778  1
 5525  3683  3684  1
 5526  3684  3685  1
 5527  3684  3781  1
 5528  3685  3686  1
 5529  3686  3687  1
 5530  3687  3688  1
 5531  3687  3782  1
 5532  3688  3689  1
 5533  3688  3785  1
 5534  3689  3690  1
 5535  3690  3691  1
 5536  3691  3692  1
 5537  3691  3786  1
 5538  3692  3693  1
 5539  3692  3789  1
 5540  3693  3694  1
 5541  3694  3695  1
 5542  3695  3696  1
 5543  3695  3790  1
 5544  3696  3697  1
 5545  3696  3793  1
 5546  3697  3698  1
 5547  3698  3699  1
 5548  3699  3700  1
 5549  3699  3794  1
 5550  3700  3701  1
 5551  3700  3797  1
 5552  3701  3702  1
 5553  3702  3703  1
 5554  3703  3704  1
 5555  3703  3798  1
 5556  3704  3705  1
 5557  3704  3801  1
 5558  3705  3706  1
 5559  3706  3707  1
 5560  3707  3802  1
 5561  3707  3708  1
 5562  3708  3709  1
 5563  3708  3805  1
 5564  3709  3710  1
 5565  3710  3711  1
 5566  3711  3712  1
 5567  3711  3806  1
 5568  3712  3713  1
 5569  3712  3809  1
 5570  3713  3714  1
 5571  3714  3715  1
 5572  3715  3810  1
 5573  3715  3716  1
 5574  3716  3717  1
 5575  3716  3813  1
 5576  3717  3718  1
 5577  3718  3719  1
 5578  3719  3814  1
 5579  3719  3720  1
 5580  3720  3721  1
 5581  3720  3817  1
 5582  3721  3722  1
 5583  3722  3723  1
 5584  3723  3724  1
 5585  3723  3818  1
 5586  3724  3725  1
 5587  3724  3821  1
 5588  3725  3726  1
 5589  3726  3727  1
 5590  3727  3728  1
 5591  3727  3822  1
 5592  3728  3729  1
 5593  3728  3825  1
 5594  3729  3730  1
 5595  3730  3731  1
 5596  3731  3826  1
 5597  3731  3732  1
 5598  3732  3733  1
 5599  3732  3829  1
 5600  3733  3734  1
 5601  3734  3735  1
 5602  3735  3830  1
 5603  3735  3736  1
 5604  3736  3737  1
 5605  3736  3833  1
 5606  3737  3738  1
 5607  3738  3739  1
 5608  3739  3834  1
 5609  3739  3740  1
 5610  3740  3741  1
 5611  3740  3837  1
 5612  3741  3742  1
 5613  3742  3743  1
 5614  3743  3838  1
 5615  3743  3744  1
 5616  3744  3745  1
 5617  3745  3746  1
 5618  3745  3840  1
 5619  3746  3747  1
 5620  3747  3748  1
 5621  3747  3842  1
 5622  3748  3749  1
 5623  3748  3845  1
 5624  3749  3750  1
 5625  3750  3751  1
 5626  3751  3752  1
 5627  3751  3846  1
 5628  3752  3849  1
 5629  3752  3753  1
 5630  3753  3754  1
 5631  3754  3755  1
 5632  3755  3850  1
 5633  3755  3756  1
 5634  3756  3757  1
 5635  3756  3853  1
 5636  3757  3758  1
 5637  3758  3759  1
 5638  3759  3760  1
 5639  3759  3854  1
 5640  3760  3857  1
 5641  3760  3761  1
 5642  3761  3762  1
 5643  3762  3763  1
 5644  3763  3858  1
 5645  3763  3764  1
 5646  3764  3765  1
 5647  3764  3861  1
 5648  3765  3766  1
 5649  3766  3767  1
 5650  3767  3862  1
 5651  3767  3768  1
 5652  3768  3769  1
 5653  3768  3865  1
 5654  3769  3770  1
 5655  3770  3771  1
 5656  3771  3772  1
 5657  3771  3866  1
 5658  3772  3869  1
 5659  3772  3773  1
 5660  3773  3774  1
 5661  3774  3775  1
 5662  3775  3776  1
 5663  3775  3870  1
 5664  3776  3873  1
 5665  3776  3777  1
 5666  3777  3778  1
 5667  3778  3779  1
 5668  3779  3874  1
 5669  3779  3780  1
 5670  3780  3781  1
 5671  3780  3877  1
 5672  3781  3782  1
 5673  3782  3783  1
 5674  3783  3784  1
 5675  3783  3878  1
 5676  3784  3785  1
 5677  3784  3881  1
 5678  3785  3786  1
 5679  3786  3787  1
 5680  3787  3788  1
 5681  3787  3882  1
 5682  3788  3789  1
 5683  3788  3885  1
 5684  3789  3790  1
 5685  3790  3791  1
 5686  3791  3792  1
 5687  3791  3886  1
 5688  3792  3793  1
 5689  3792  3889  1
 5690  3793  3794  1
 5691  3794  3795  1
 5692  3795  3796  1
 5693  3795  3890  1
 5694  3796  3797  1
 5695  3796  3893  1
 5696  3797  3798  1
 5697  3798  3799  1
 5698  3799  3800  1
 5699  3799  3894  1
 5700  3800  3801  1
 5701  3800  3897  1
 5702  3801  3802  1
 5703  3802  3803  1
 5704  3803  3898  1
 5705  3803  3804  1
 5706  3804  3805  1
 5707  3804  3901  1
 5708  3805  3806  1
 5709  3806  3807  1
 5710  3807  3808  1
 5711  3807  3902  1
 5712  3808  3809  1
 5713  3808  3905  1
 5714  3809  3810  1
 5715  3810  3811  1
 5716  3811  3812  1
 5717  3811  3906  1
 5718  3812  3813  1
 5719  3812  3909  1
 5720  3813  3814  1
 5721  3814  3815  1
 5722  3815  3816  1
 5723  3815  3910  1
 5724  3816  3817  1
 5725  3816  3913  1
 5726  3817  3818  1
 5727  3818  3819  1
 5728  3819  3820  1
 5729  3819  3914  1
 5730  3820  3821  1
 5731  3820  3917  1
 5732  3821  3822  1
 5733  3822  3823  1
 5734  3823  3824  1
 5735  3823  3918  1
 5736  3824  3825  1
 5737  3824  3921  1
 5738  3825  3826  1
 5739  3826  3827  1
 5740  3827  3922  1
 5741  3827  3828  1
 5742  3828  3829  1
 5743  3828  3925  1
 5744  3829  3830  1
 5745  3830  3831  1
 5746  3831  3832  1
 5747  3831  3926  1
 5748  3832  3833  1
 5749  3832  3929  1
 5750  3833  3834  1
 5751  3834  3835  1
 5752  3835  3836  1
 5753  3835  3930  1
 5754  3836  3837  1
 5755  3836  3933  1
 5756  3837  3838  1
 5757  3838  3839  1
 5758  3839  3840  1
 5759  3839  3934  1
 5760  3840  3841  1
 5761  3841  3936  1
 5762  3841  3842  1
 5763  3842  3843  1
 5764  3843  3844  1
 5765  3843  3938  1
 5766  3844  3845  1
 5767  3844  3941  1
 5768  3845  3846  1
 5769  3846  3847  1
 5770  3847  3848  1
 5771  3847  3942  1
 5772  3848  3945  1
 5773  3848  3849  1
 5774  3849  3850  1
 5775  3850  3851  1
 5776  3851  3946  1
 5777  3851  3852  1
 5778  3852  3853  1
 5779  3852  3949  1
 5780  3853  3854  1
 5781  3854  3855  1
 5782  3855  3856  1
 5783  3855  3950  1
 5784  3856  3953  1
 5785  3856  3857  1
 5786  3857  3858  1
 5787  3858  3859  1
 5788  3859  3954  1
 5789  3859  3860  1
 5790  3860  3861  1
 5791  3860  3957  1
 5792  3861  3862  1
 5793  3862  3863  1
 5794  3863  3958  1
 5795  3863  3864  1
 5796  3864  3865  1
 5797  3864  3961  1
 5798  3865  3866  1
 5799  3866  3867  1
 5800  3867  3868  1
 5801  3867  3962  1
 5802  3868  3965  1
 5803  3868  3869  1
 5804  3869  3870  1
 5805  3870  3871  1
 5806  3871  3872  1
 5807  3871  3966  1
 5808  3872  3969  1
 5809  3872  3873  1
 5810  3873  3874  1
 5811  3874  3875  1
 5812  3875  3970  1
 5813  3875  3876  1
 5814  3876  3877  1
 5815  3876  3973  1
 5816  3877  3878  1
 5817  3878  3879  1
 5818  3879  3880  1
 5819  3879  3974  1
 5820  3880  3881  1
 5821  3880  3977  1
 5822  3881  3882  1
 5823  3882  3883  1
 5824  3883  3884  1
 5825  3883  3978  1
 5826  3884  3885  1
 5827  3884  3981  1
 5828  3885  3886  1
 5829  3886  3887  1
 5830  3887  3888  1
 5831  3887  3982  1
 5832  3888  3889  1
 5833  3888  3985  1
 5834  3889  3890  1
 5835  3890  3891  1
 5836  3891  3892  1
 5837  3891  3986  1
 5838  3892  3893  1
 5839  3892  3989  1
 5840  3893  3894  1
 5841  3894  3895  1
 5842  3895  3896  1
 5843  3895  3990  1
 5844  3896  3897  1
 5845  3896  3993  1
 5846  3897  3898  1
 5847  3898  3899  1
 5848  3899  3994  1
 5849  3899  3900  1
 5850  3900  3901  1
 5851  3900  3997  1
 5852  3901  3902  1
 5853  3902  3903  1
 5854  3903  3904  1
 5855  3903  3998  1
 5856  3904  3905  1
 5857  3904  4001  1
 5858  3905  3906  1
 5859  3906  3907  1
 5860  3907  3908  1
 5861  3907  4002  1
 5862  3908  3909  1
 5863  3908  4005  1
 5864  3909  3910  1
 5865  3910  3911  1
 5866  3911  3912  1
 5867  3911  4006  1
 5868  3912  3913  1
 5869  3912  4009  1
 5870  3913  3914  1
 5871  3914  3915  1
 5872  3915  3916  1
 5873  3915  4010  1
 5874  3916  3917  1
 5875  3916  4013  1
 5876  3917  3918  1
 5877  3918  3919  1
 5878  3919  3920  1
 5879  3919  4014  1
 5880  3920  3921  1
 5881  3920  4017  1
 5882  3921  3922  1
 5883  3922  3923  1
 5884  3923  4018  1
 5885  3923  3924  1
 5886  3924  3925  1
 5887  3924  4021  1
 5888  3925  3926  1
 5889  3926  3927  1
 5890  3927  3928  1
 5891  3927  4022  1
 5892  3928  3929  1
 5893  3928  4025  1
 5894  3929  3930  1
 5895  3930  3931  1
 5896  3931  3932  1
 5897  3931  4026  1
 5898  3932  3933  1
 5899  3932  4029  1
 5900  3933  3934  1
 5901  3934  3935  1
 5902  3935  3936  1
 5903  3935  4030  1
 5904  3936  3937  1
 5905  3937  4032  1
 5906  3937  3938  1
 5907  3938  3939  1
 5908  3939  3940  1
 5909  3939  4034  1
 5910  3940  3941  1
 5911  3940  4037  1
 5912  3941  3942  1
 5913  3942  3943  1
 5914  3943  3944  1
 5915  3943  4038  1
 5916  3944  4041  1
 5917  3944  3945  1
 5918  3945  3946  1
 5919  3946  3947  1
 5920  3947  4042  1
 5921  3947  3948  1
 5922  3948  3949  1
 5923  3948  4045  1
 5924  3949  3950  1
 5925  3950  3951  1
 5926  3951  3952  1
 5927  3951  4046  1
 5928  3952  4049  1
 5929  3952  3953  1
 5930  3953  3954  1
 5931  3954  3955  1
 5932  3955  4050  1
 5933  3955  3956  1
 5934  3956  3957  1
 5935  3956  4053  1
 5936  3957  3958  1
 5937  3958  3959  1
 5938  3959  4054  1
 5939  3959  3960  1
 5940  3960  3961  1
 5941  3960  4057  1
 5942  3961  3962  1
 5943  3962  3963  1
 5944  3963  3964  1
 5945  3963  4058  1
 5946  3964  4061  1
 5947  3964  3965  1
 5948  3965  3966  1
 5949  3966  3967  1
 5950  3967  3968  1
 5951  3967  4062  1
 5952  3968  4065  1
 5953  3968  3969  1
 5954  3969  3970  1
 5955  3970  3971  1
 5956  3971  4066  1
 5957  3971  3972  1
 5958  3972  3973  1
 5959  3972  4069  1
 5960  3973  3974  1
 5961  3974  3975  1
 5962  3975  3976  1
 5963  3975  4070  1
 5964  3976  3977  1
 5965  3976  4073  1
 5966  3977  3978  1
 5967  3978  3979  1
 5968  3979  3980  1
 5969  3979  4074  1
 5970  3980  3981  1
 5971  3980  4077  1
 5972  3981  3982  1
 5973  3982  3983  1
 5974  3983  3984  1
 5975  3983  4078  1
 5976  3984  3985  1
 5977  3984  4081  1
 5978  3985  3986  1
 5979  3986  3987  1
 5980  3987  3988  1
 5981  3987  4082  1
 5982  3988  3989  1
 5983  3988  4085  1
 5984  3989  3990  1
 5985  3990  3991  1
 5986  3991  3992  1
 5987  3991  4086  1
 5988  3992  3993  1
 5989  3992  4089  1
 5990  3993  3994  1
 5991  3994  3995  1
 5992  3995  4090  1
 5993  3995  3996  1
 5994  3996  3997  1
 5995  3996  4093  1
 5996  3997  3998  1
 5997  3998  3999  1
 5998  3999  4000  1
 5999  3999  4094  1
 6000  4000  4001  1
 6001  4000  4097  1
 6002  4001  4002  1
 6003  4002  4003  1
 6004  4003  4004  1
 6005  4003  4098  1
 6006  4004  4005  1
 6007  4004  4101  1
 6008  4005  4006  1
 6009  4006  4007  1
 6010  4007  4008  1
 6011  4007  4102  1
 6012  4008  4009  1
 6013  4008  4105  1
 6014  4009  4010  1
 6015  4010  4011  1
 6016  4011  4012  1
 6017  4011  4106  1
 6018  4012  4013  1
 6019  4012  4109  1
 6020  4013  4014  1
 6021  4014  4015  1
 6022  4015  4016  1
 6023  4015  4110  1
 6024  4016  4017  1
 6025  4016  4113  1
 6026  4017  4018  1
 6027  4018  4019  1
 6028  4019  4114  1
 6029  4019  4020  1
 6030  4020  4021  1
 6031  4020  4117  1
 6032  4021  4022  1
 6033  4022  4023  1
 6034  4023  4024  1
 6035  4023  4118  1
 6036  4024  4025  1
 6037  4024  4121  1
 6038  4025  4026  1
 6039  4026  4027  1
 6040  4027  4028  1
 6041  4027  4122  1
 6042  4028  4029  1
 6043  4028  4125  1
 6044  4029  4030  1
 6045  4030  4031  1
 6046  4031  4032  1
 6047  4031  4126  1
 6048  4032  4033  1
 6049  4033  4034  1
 6050  4033  4128  1
 6051  4034  4035  1
 6052  4035  4130  1
 6053  4035  4036  1
 6054  4036  4037  1
 6055  4036  4133  1
 6056  4037  4038  1
 6057  4038  4039  1
 6058  4039  4134  1
 6059  4039  4040  1
 6060  4040  4041  1
 6061  4040  4137  1
 6062  4041  4042  1
 6063  4042  4043  1
 6064  4043  4138  1
 6065  4043  4044  1
 6066  4044  4045  1
 6067  4044  4141  1
 6068  4045  4046  1
 6069  4046  4047  1
 6070  4047  4048  1
 6071  4047  4142  1
 6072  4048  4049  1
 6073  4048  4145  1
 6074  4049  4050  1
 6075  4050  4051  1
 6076  4051  4146  1
 6077  4051  4052  1
 6078  4052  4053  1
 6079  4052  4149  1
 6080  4053  4054  1
 6081  4054  4055  1
 6082  4055  4150  1
 6083  4055  4056  1
 6084  4056  4057  1
 6085  4056  4153  1
 6086  4057  4058  1
 6087  4058  4059  1
 6088  4059  4060  1
 6089  4059  4154  1
 6090  4060  4061  1
 6091  4060  4157  1
 6092  4061  4062  1
 6093  4062  4063  1
 6094  4063  4064  1
 6095  4063  4158  1
 6096  4064  4065  1
 6097  4064  4161  1
 6098  4065  4066  1
 6099  4066  4067  1
 6100  4067  4162  1
 6101  4067  4068  1
 6102  4068  4069  1
 6103  4068  4165  1
 6104  4069  4070  1
 6105  4070  4071  1
 6106  4071  4072  1
 6107  4071  4166  1
 6108  4072  4073  1
 6109  4072  4169  1
 6110  4073  4074  1
 6111  4074  4075  1
 6112  4075  4076  1
 6113  4075  4170  1
 6114  4076  4077  1
 6115  4076  4173  1
 6116  4077  4078  1
 6117  4078  4079  1
 6118  4079  4080  1
 6119  4079  4174  1
 6120  4080  4081  1
 6121  4080  4177  1
 6122  4081  4082  1
 6123  4082  4083  1
 6124  4083  4084  1
 6125  4083  4178  1
 6126  4084  4085  1
 6127  4084  4181  1
 6128  4085  4086  1
 6129  4086  4087  1
 6130  4087  4088  1
 6131  4087  4182  1
 6132  4088  4089  1
 6133  4088  4185  1
 6134  4089  4090  1
 6135  4090  4091  1
 6136  4091  4186  1
 6137  4091  4092  1
 6138  4092  4093  1
 6139  4092  4189  1
 6140  4093  4094  1
 6141  4094  4095  1
 6142  4095  4096  1
 6143  4095  4190  1
 6144  4096  4097  1
 6145  4096  4193  1
 6146  4097  4098  1
 6147  4098  4099  1
 6148  4099  4194  1
 6149  4099  4100  1
 6150  4100  4101  1
 6151  4100  4197  1
 6152  4101  4102  1
 6153  4102  4103  1
 6154  4103  4198  1
 6155  4103  4104  1
 6156  4104  4105  1
 6157  4104  4201  1
 6158  4105  4106  1
 6159  4106  4107  1
 6160  4107  4108  1
 6161  4107  4202  1
 6162  4108  4109  1
 6163  4108  4205  1
 6164  4109  4110  1
 6165  4110  4111  1
 6166  4111  4112  1
 6167  4111  4206  1
 6168  4112  4113  1
 6169  4112  4209  1
 6170  4113  4114  1
 6171  4114  4115  1
 6172  4115  4210  1
 6173  4115  4116  1
 6174  4116  4117  1
 6175  4116  4213  1
 6176  4117  4118  1
 6177  4118  4119  1
 6178  4119  4214  1
 6179  4119  4120  1
 6180  4120  4121  1
 6181  4120  4217  1
 6182  4121  4122  1
 6183  4122  4123  1
 6184  4123  4218  1
 6185  4123  4124  1
 6186  4124  4125  1
 6187  4124  4221  1
 6188  4125  4126  1
 6189  4126  4127  1
 6190  4127  4222  1
 6191  4127  4128  1
 6192  4128  4129  1
 6193  4129  4130  1
 6194  4129  4224  1
 6195  4130  4131  1
 6196  4131  4226  1
 6197  4131  4132  1
 6198  4132  4133  1
 6199  4132  4229  1
 6200  4133  4134  1
 6201  4134  4135  1
 6202  4135  4230  1
 6203  4135  4136  1
 6204  4136  4137  1
 6205  4136  4233  1
 6206  4137  4138  1
 6207  4138  4139  1
 6208  4139  4234  1
 6209  4139  4140  1
 6210  4140  4141  1
 6211  4140  4237  1
 6212  4141  4142  1
 6213  4142  4143  1
 6214  4143  4144  1
 6215  4143  4238  1
 6216  4144  4145  1
 6217  4144  4241  1
 6218  4145  4146  1
 6219  4146  4147  1
 6220  4147  4242  1
 6221  4147  4148  1
 6222  4148  4149  1
 6223  4148  4245  1
 6224  4149  4150  1
 6225  4150  4151  1
 6226  4151  4246  1
 6227  4151  4152  1
 6228  4152  4153  1
 6229  4152  4249  1
 6230  4153  4154  1
 6231  4154  4155  1
 6232  4155  4156  1
 6233  4155  4250  1
 6234  4156  4157  1
 6235  4156  4253  1
 6236  4157  4158  1
 6237  4158  4159  1
 6238  4159  4160  1
 6239  4159  4254  1
 6240  4160  4161  1
 6241  4160  4257  1
 6242  4161  4162  1
 6243  4162  4163  1
 6244  4163  4258  1
 6245  4163  4164  1
 6246  4164  4165  1
 6247  4164  4261  1
 6248  4165  4166  1
 6249  4166  4167  1
 6250  4167  4168  1
 6251  4167  4262  1
 6252  4168  4169  1
 6253  4168  4265  1
 6254  4169  4170  1
 6255  4170  4171  1
 6256  4171  4172  1
 6257  4171  4266  1
 6258  4172  4173  1
 6259  4172  4269  1
 6260  4173  4174  1
 6261  4174  4175  1
 6262  4175  4176  1
 6263  4175  4270  1
 6264  4176  4177  1
 6265  4176  4273  1
 6266  4177  4178  1
 6267  4178  4179  1
 6268  4179  4180  1
 6269  4179  4274  1
 6270  4180  4181  1
 6271  4180  4277  1
 6272  4181  4182  1
 6273  4182  4183  1
 6274  4183  4184  1
 6275  4183  4278  1
 6276  4184  4185  1
 6277  4184  4281  1
 6278  4185  4186  1
 6279  4186  4187  1
 6280  4187  4282  1
 6281  4187  4188  1
 6282  4188  4189  1
 6283  4188  4285  1
 6284  4189  4190  1
 6285  4190  4191  1
 6286  4191  4192  1
 6287  4191  4286  1
 6288  4192  4193  1
 6289  4192  4289  1
 6290  4193  4194  1
 6291  4194  4195  1
 6292  4195  4290  1
 6293  4195  4196  1
 6294  4196  4197  1
 6295  4196  4293  1
 6296  4197  4198  1
 6297  4198  4199  1
 6298  4199  4294  1
 6299  4199  4200  1
 6300  4200  4201  1
 6301  4200  4297  1
 6302  4201  4202  1
 6303  4202  4203  1
 6304  4203  4204  1
 6305  4203  4298  1
 6306  4204  4205  1
 6307  4204  4301  1
 6308  4205  4206  1
 6309  4206  4207  1
 6310  4207  4208  1
 6311  4207  4302  1
 6312  4208  4209  1
 6313  4208  4305  1
 6314  4209  4210  1
 6315  4210  4211  1
 6316  4211  4306  1
 6317  4211  4212  1
 6318  4212  4213  1
 6319  4212  4309  1
 6320  4213  4214  1
 6321  4214  4215  1
 6322  4215  4310  1
 6323  4215  4216  1
 6324  4216  4217  1
 6325  4216  4313  1
 6326  4217  4218  1
 6327  4218  4219  1
 6328  4219  4314  1
 6329  4219  4220  1
 6330  4220  4221  1
 6331  4220  4317  1
 6332  4221  4222  1
 6333  4222  4223  1
 6334  4223  4318  1
 6335  4223  4224  1
 6336  4224  4225  1
 6337  4225  4226  1
 6338  4225  4320  1
 6339  4226  4227  1
 6340  4227  4228  1
 6341  4227  4322  1
 6342  4228  4229  1
 6343  4228  4325  1
 6344  4229  4230  1
 6345  4230  4231  1
 6346  4231  4232  1
 6347  4231  4326  1
 6348  4232  4329  1
 6349  4232  4233  1
 6350  4233  4234  1
 6351  4234  4235  1
 6352  4235  4330  1
 6353  4235  4236  1
 6354  4236  4237  1
 6355  4236  4333  1
 6356  4237  4238  1
 6357  4238  4239  1
 6358  4239  4240  1
 6359  4239  4334  1
 6360  4240  4337  1
 6361  4240  4241  1
 6362  4241  4242  1
 6363  4242  4243  1
 6364  4243  4338  1
 6365  4243  4244  1
 6366  4244  4245  1
 6367  4244  4341  1
 6368  4245  4246  1
 6369  4246  4247  1
 6370  4247  4342  1
 6371  4247  4248  1
 6372  4248  4249  1
 6373  4248  4345  1
 6374  4249  4250  1
 6375  4250  4251  1
 6376  4251  4252  1
 6377  4251  4346  1
 6378  4252  4349  1
 6379  4252  4253  1
 6380  4253  4254  1
 6381  4254  4255  1
 6382  4255  4256  1
 6383  4255  4350  1
 6384  4256  4353  1
 6385  4256  4257  1
 6386  4257  4258  1
 6387  4258  4259  1
 6388  4259  4354  1
 6389  4259  4260  1
 6390  4260  4261  1
 6391  4260  4357  1
 6392  4261  4262  1
 6393  4262  4263  1
 6394  4263  4264  1
 6395  4263  4358  1
 6396  4264  4265  1
 6397  4264  4361  1
 6398  4265  4266  1
 6399  4266  4267  1
 6400  4267  4268  1
 6401  4267  4362  1
 6402  4268  4269  1
 6403  4268  4365  1
 6404  4269  4270  1
 6405  4270  4271  1
 6406  4271  4272  1
 6407  4271  4366  1
 6408  4272  4273  1
 6409  4272  4369  1
 6410  4273  4274  1
 6411  4274  4275  1
 6412  4275  4276  1
 6413  4275  4370  1
 6414  4276  4277  1
 6415  4276  4373  1
 6416  4277  4278  1
 6417  4278  4279  1
 6418  4279  4280  1
 6419  4279  4374  1
 6420  4280  4281  1
 6421  4280  4377  1
 6422  4281  4282  1
 6423  4282  4283  1
 6424  4283  4378  1
 6425  4283  4284  1
 6426  4284  4285  1
 6427  4284  4381  1
 6428  4285  4286  1
 6429  4286  4287  1
 6430  4287  4288  1
 6431  4287  4382  1
 6432  4288  4289  1
 6433  4288  4385  1
 6434  4289  4290  1
 6435  4290  4291  1
 6436  4291  4292  1
 6437  4291  4386  1
 6438  4292  4293  1
 6439  4292  4389  1
 6440  4293  4294  1
 6441  4294  4295  1
 6442  4295  4296  1
 6443  4295  4390  1
 6444  4296  4297  1
 6445  4296  4393  1
 6446  4297  4298  1
 6447  4298  4299  1
 6448  4299  4300  1
 6449  4299  4394  1
 6450  4300  4301  1
 6451  4300  4397  1
 6452  4301  4302  1
 6453  4302  4303  1
 6454  4303  4304  1
 6455  4303  4398  1
 6456  4304  4305  1
 6457  4304  4401  1
 6458  4305  4306  1
 6459  4306  4307  1
 6460  4307  4402  1
 6461  4307  4308  1
 6462  4308  4309  1
 6463  4308  4405  1
 6464  4309  4310  1
 6465  4310  4311  1
 6466  4311  4312  1
 6467  4311  4406  1
 6468  4312  4313  1
 6469  4312  4409  1
 6470  4313  4314  1
 6471  4314  4315  1
 6472  4315  4316  1
 6473  4315  4410  1
 6474  4316  4317  1
 6475  4316  4413  1
 6476  4317  4318  1
 6477  4318  4319  1
 6478  4319  4320  1
 6479  4319  4414  1
 6480  4320  4321  1
 6481  4321  4416  1
 6482  4321  4322  1
 6483  4322  4323  1
 6484  4323  4324  1
 6485  4323  4418  1
 6486  4324  4325  1
 6487  4324  4421  1
 6488  4325  4326  1
 6489  4326  4327  1
 6490  4327  4328  1
 6491  4327  4422  1
 6492  4328  4425  1
 6493  4328  4329  1
 6494  4329  4330  1
 6495  4330  4331  1
 6496  4331  4426  1
 6497  4331  4332  1
 6498  4332  4333  1
 6499  4332  4429  1
 6500  4333  4334  1
 6501  4334  4335  1
 6502  4335  4336  1
 6503  4335  4430  1
 6504  4336  4433  1
 6505  4336  4337  1
 6506  4337  4338  1
 6507  4338  4339  1
 6508  4339  4434  1
 6509  4339  4340  1
 6510  4340  4341  1
 6511  4340  4437  1
 6512  4341  4342  1
 6513  4342  4343  1
 6514  4343  4438  1
 6515  4343  4344  1
 6516  4344  4345  1
 6517  4344  4441  1
 6518  4345  4346  1
 6519  4346  4347  1
 6520  4347  4348  1
 6521  4347  4442  1
 6522  4348  4445  1
 6523  4348  4349  1
 6524  4349  4350  1
 6525  4350  4351  1
 6526  4351  4352  1
 6527  4351  4446  1
 6528  4352  4449  1
 6529  4352  4353  1
 6530  4353  4354  1
 6531  4354  4355  1
 6532  4355  4450  1
 6533  4355  4356  1
 6534  4356  4357  1
 6535  4356  4453  1
 6536  4357  4358  1
 6537  4358  4359  1
 6538  4359  4360  1
 6539  4359  4454  1
 6540  4360  4361  1
 6541  4360  4457  1
 6542  4361  4362  1
 6543  4362  4363  1
 6544  4363  4364  1
 6545  4363  4458  1
 6546  4364  4365  1
 6547  4364  4461  1
 6548  4365  4366  1
 6549  4366  4367  1
 6550  4367  4368  1
 6551  4367  4462  1
 6552  4368  4369  1
 6553  4368  4465  1
 6554  4369  4370  1
 6555  4370  4371  1
 6556  4371  4372  1
 6557  4371  4466  1
 6558  4372  4373  1
 6559  4372  4469  1
 6560  4373  4374  1
 6561  4374  4375  1
 6562  4375  4376  1
 6563  4375  4470  1
 6564  4376  4377  1
 6565  4376  4473  1
 6566  4377  4378  1
 6567  4378  4379  1
 6568  4379  4474  1
 6569  4379  4380  1
 6570  4380  4381  1
 6571  4380  4477  1
 6572  4381  4382  1
 6573  4382  4383  1
 6574  4383  4384  1
 6575  4383  4478  1
 6576  4384  4385  1
 6577  4384  4481  1
 6578  4385  4386  1
 6579  4386  4387  1
 6580  4387  4388  1
 6581  4387  4482  1
 6582  4388  4389  1
 6583  4388  4485  1
 6584  4389  4390  1
 6585  4390  4391  1
 6586  4391  4392  1
 6587  4391  4486  1
 6588  4392  4393  1
 6589  4392  4489  1
 6590  4393  4394  1
 6591  4394  4395  1
 6592  4395  4396  1
 6593  4395  4490  1
 6594  4396  4397  1
 6595  4396  4493  1
 6596  4397  4398  1
 6597  4398  4399  1
 6598  4399  4400  1
 6599  4399  4494  1
 6600  4400  4401  1
 6601  4400  4497  1
 6602  4401  4402  1
 6603  4402  4403  1
 6604  4403  4498  1
 6605  4403  4404  1
 6606  4404  4405  1
 6607  4404  4501  1
 6608  4405  4406  1
 6609  4406  4407  1
 6610  4407  4408  1
 6611  4407  4502  1
 6612  4408  4409  1
 6613  4408  4505  1
 6614  4409  4410  1
 6615  4410  4411  1
 6616  4411  4412  1
 6617  4411  4506  1
 6618  4412  4413  1
 6619  4412  4509  1
 6620  4413  4414  1
 6621  4414  4415  1
 6622  4415  4416  1
 6623  4415  4510  1
 6624  4416  4417  1
 6625  4417  4512  1
 6626  4417  4418  1
 6627  4418  4419  1
 6628  4419  4420  1
 6629  4419  4514  1
 6630  4420  4421  1
 6631  4420  4517  1
 6632  4421  4422  1
 6633  4422  4423  1
 6634  4423  4424  1
 6635  4423  4518  1
 6636  4424  4521  1
 6637  4424  4425  1
 6638  4425  4426  1
 6639  4426  4427  1
 6640  4427  4522  1
 6641  4427  4428  1
 6642  4428  4429  1
 6643  4428  4525  1
 6644  4429  4430  1
 6645  4430  4431  1
 6646  4431  4432  1
 6647  4431  4526  1
 6648  4432  4529  1
 6649  4432  4433  1
 6650  4433  4434  1
 6651  4434  4435  1
 6652  4435  4530  1
 6653  4435  4436  1
 6654  4436  4437  1
 6655  4436  4533  1
 6656  4437  4438  1
 6657  4438  4439  1
 6658  4439  4534  1
 6659  4439  4440  1
 6660  4440  4441  1
 6661  4440  4537  1
 6662  4441  4442  1
 6663  4442  4443  1
 6664  4443  4444  1
 6665  4443  4538  1
 6666  4444  4541  1
 6667  4444  4445  1
 6668  4445  4446  1
 6669  4446  4447  1
 6670  4447  4448  1
 6671  4447  4542  1
 6672  4448  4545  1
 6673  4448  4449  1
 6674  4449  4450  1
 6675  4450  4451  1
 6676  4451  4546  1
 6677  4451  4452  1
 6678  4452  4453  1
 6679  4452  4549  1
 6680  4453  4454  1
 6681  4454  4455  1
 6682  4455  4456  1
 6683  4455  4550  1
 6684  4456  4457  1
 6685  4456  4553  1
 6686  4457  4458  1
 6687  4458  4459  1
 6688  4459  4460  1
 6689  4459  4554  1
 6690  4460  4461  1
 6691  4460  4557  1
 6692  4461  4462  1
 6693  4462  4463  1
 6694  4463  4464  1
 6695  4463  4558  1
 6696  4464  4465  1
 6697  4464  4561  1
 6698  4465  4466  1
 6699  4466  4467  1
 6700  4467  4468  1
 6701  4467  4562  1
 6702  4468  4469  1
 6703  4468  4565  1
 6704  4469  4470  1
 6705  4470  4471  1
 6706  4471  4472  1
 6707  4471  4566  1
 6708  4472  4473  1
 6709  4472  4569  1
 6710  4473  4474  1
 6711  4474  4475  1
 6712  4475  4570  1
 6713  4475  4476  1
 6714  4476  4477  1
 6715  4476  4573  1
 6716  4477  4478  1
 6717  4478  4479  1
 6718  4479  4480  1
 6719  4479  4574  1
 6720  4480  4481  1
 6721  4480  4577  1
 6722  4481  4482  1
 6723  4482  4483  1
 6724  4483  4484  1
 6725  4483  4578  1
 6726  4484  4485  1
 6727  4484  4581  1
 6728  4485  4486  1
 6729  4486  4487  1
 6730  4487  4488  1
 6731  4487  4582  1
 6732  4488  4489  1
 6733  4488  4585  1
 6734  4489  4490  1
 6735  4490  4491  1
 6736  4491  4492  1
 6737  4491  4586  1
 6738  4492  4493  1
 6739  4492  4589  1
 6740  4493  4494  1
 6741  4494  4495  1
 6742  4495  4496  1
 6743  4495  4590  1
 6744  4496  4497  1
 6745  4496  4593  1
 6746  4497  4498  1
 6747  4498  4499  1
 6748  4499  4594  1
 6749  4499  4500  1
 6750  4500  4501  1
 6751  4500  4597  1
 6752  4501  4502  1
 6753  4502  4503  1
 6754  4503  4504  1
 6755  4503  4598  1
 6756  4504  4505  1
 6757  4504  4601  1
 6758  4505  4506  1
 6759  4506  4507  1
 6760  4507  4508  1
 6761  4507  4602  1
 6762  4508  4509  1
 6763  4508  4605  1
 6764  4509  4510  1
 6765  4510  4511  1
 6766  4511  4512  1
 6767  4511  4606  1
 6768  4512  4513  1
 6769  4513  4514  1
 6770  4513  4608  1
 6771  4514  4515  1
 6772  4515  4610  1
 6773  4515  4516  1
 6774  4516  4517  1
 6775  4516  4613  1
 6776  4517  4518  1
 6777  4518  4519  1
 6778  4519  4614  1
 6779  4519  4520  1
 6780  4520  4521  1
 6781  4520  4617  1
 6782  4521  4522  1
 6783  4522  4523  1
 6784  4523  4618  1
 6785  4523  4524  1
 6786  4524  4525  1
 6787  4524  4621  1
 6788  4525  4526  1
 6789  4526  4527  1
 6790  4527  4528  1
 6791  4527  4622  1
 6792  4528  4529  1
 6793  4528  4625  1
 6794  4529  4530  1
 6795  4530  4531  1
 6796  4531  4626  1
 6797  4531  4532  1
 6798  4532  4533  1
 6799  4532  4629  1
 6800  4533  4534  1
 6801  4534  4535  1
 6802  4535  4630  1
 6803  4535  4536  1
 6804  4536  4537  1
 6805  4536  4633  1
 6806  4537  4538  1
 6807  4538  4539  1
 6808  4539  4540  1
 6809  4539  4634  1
 6810  4540  4541  1
 6811  4540  4637  1
 6812  4541  4542  1
 6813  4542  4543  1
 6814  4543  4544  1
 6815  4543  4638  1
 6816  4544  4545  1
 6817  4544  4641  1
 6818  4545  4546  1
 6819  4546  4547  1
 6820  4547  4642  1
 6821  4547  4548  1
 6822  4548  4549  1
 6823  4548  4645  1
 6824  4549  4550  1
 6825  4550  4551  1
 6826  4551  4552  1
 6827  4551  4646  1
 6828  4552  4553  1
 6829  4552  4649  1
 6830  4553  4554  1
 6831  4554  4555  1
 6832  4555  4556  1
 6833  4555  4650  1
 6834  4556  4557  1
 6835  4556  4653  1
 6836  4557  4558  1
 6837  4558  4559  1
 6838  4559  4560  1
 6839  4559  4654  1
 6840  4560  4561  1
 6841  4560  4657  1
 6842  4561  4562  1
 6843  4562  4563  1
 6844  4563  4564  1
 6845  4563  4658  1
 6846  4564  4565  1
 6847  4564  4661  1
 6848  4565  4566  1
 6849  4566  4567  1
 6850  4567  4568  1
 6851  4567  4662  1
 6852  4568  4569  1
 6853  4568  4665  1
 6854  4569  4570  1
 6855  4570  4571  1
 6856  4571  4666  1
 6857  4571  4572  1
 6858  4572  4573  1
 6859  4572  4669  1
 6860  4573  4574  1
 6861  4574  4575  1
 6862  4575  4576  1
 6863  4575  4670  1
 6864  4576  4577  1
 6865  4576  4673  1
 6866  4577  4578  1
 6867  4578  4579  1
 6868  4579  4674  1
 6869  4579  4580  1
 6870  4580  4581  1
 6871  4580  4677  1
 6872  4581  4582  1
 6873  4582  4583  1
 6874  4583  4678  1
 6875  4583  4584  1
 6876  4584  4585  1
 6877  4584  4681  1
 6878  4585  4586  1
 6879  4586  4587  1
 6880  4587  4588  1
 6881  4587  4682  1
 6882  4588  4589  1
 6883  4588  4685  1
 6884  4589  4590  1
 6885  4590  4591  1
 6886  4591  4592  1
 6887  4591  4686  1
 6888  4592  4593  1
 6889  4592  4689  1
 6890  4593  4594  1
 6891  4594  4595  1
 6892  4595  4690  1
 6893  4595  4596  1
 6894  4596  4597  1
 6895  4596  4693  1
 6896  4597  4598  1
 6897  4598  4599  1
 6898  4599  4694  1
 6899  4599  4600  1
 6900  4600  4601  1
 6901  4600  4697  1
 6902  4601  4602  1
 6903  4602  4603  1
 6904  4603  4698  1
 6905  4603  4604  1
 6906  4604  4605  1
 6907  4604  4701  1
 6908  4605  4606  1
 6909  4606  4607  1
 6910  4607  4702  1
 6911  4607  4608  1
 6912  4608  4609  1
 6913  4609  4610  1
 6914  4609  4704  1
 6915  4610  4611  1
 6916  4611  4612  1
 6917  4612  4613  1
 6918  4613  4614  1
 6919  4614  4615  1
 6920  4615  4616  1
 6921  4616  4617  1
 6922  4617  4618  1
 6923  4618  4619  1
 6924  4619  4620  1
 6925  4620  4621  1
 6926  4621  4622  1
 6927  4622  4623  1
 6928  4623  4624  1
 6929  4624  4625  1
 6930  4625  4626  1
 6931  4626  4627  1
 6932  4627  4628  1
 6933  4628  4629  1
 6934  4629  4630  1
 6935  4630  4631  1
 6936  4631  4632  1
 6937  4632  4633  1
 6938  4633  4634  1
 6939  4634  4635  1
 6940  4635  4636  1
 6941  4636  4637  1
 6942  4637  4638  1
 6943  4638  4639  1
 6944  4639  4640  1
 6945  4640  4641  1
 6946  4641  4642  1
 6947  4642  4643  1
 6948  4643  4644  1
 6949  4644  4645  1
 6950  4645  4646  1
 6951  4646  4647  1
 6952  4647  4648  1
 6953  4648  4649  1
 6954  4649  4650  1
 6955  4650  4651  1
 6956  4651  4652  1
 6957  4652  4653  1
 6958  4653  4654  1
 6959  4654  4655  1
 6960  4655  4656  1
 6961  4656  4657  1
 6962  4657  4658  1
 6963  4658  4659  1
 6964  4659  4660  1
 6965  4660  4661  1
 6966  4661  4662  1
 6967  4662  4663  1
 6968  4663  4664  1
 6969  4664  4665  1
 6970  4665  4666  1
 6971  4666  4667  1
 6972  4667  4668  1
 6973  4668  4669  1
 6974  4669  4670  1
 6975  4670  4671  1
 6976  4671  4672  1
 6977  4672  4673  1
 6978  4673  4674  1
 6979  4674  4675  1
 6980  4675  4676  1
 6981  4676  4677  1
 6982  4677  4678  1
 6983  4678  4679  1
 6984  4679  4680  1
 6985  4680  4681  1
 6986  4681  4682  1
 6987  4682  4683  1
 6988  4683  4684  1
 6989  4684  4685  1
 6990  4685  4686  1
 6991  4686  4687  1
 6992  4687  4688  1
 6993  4688  4689  1
 6994  4689  4690  1
 6995  4690  4691  1
 6996  4691  4692  1
 6997  4692  4693  1
 6998  4693  4694  1
 6999  4694  4695  1
 7000  4695  4696  1
 7001  4696  4697  1
 7002  4697  4698  1
 7003  4698  4699  1
 7004  4699  4700  1
 7005  4700  4701  1
 7006  4701  4702  1
 7007  4702  4703  1
 7008  4703  4704  1

@<TRIPOS>SUBSTRUCTURE
1 tarm        1 TEMP                        0 ****  **** 0 ROOT
