@<TRIPOS>MOLECULE
zigzag
 4300 6339 1 0 0
SMALL
GASTEIGER

@<TRIPOS>ATOM
      1 C           0.0000    0.0000    0.0000 ca      1  GRA         0.000000
      2 C          -0.7090    1.2280    0.0000 ca      1  GRA         0.000000
      3 C           1.4180    0.0000    0.0000 ca      1  GRA         0.000000
      4 C           2.1270    1.2280    0.0000 ca      1  GRA         0.000000
      5 C           4.2540    0.0000    0.0000 ca      1  GRA         0.000000
      6 C           3.5450    1.2280    0.0000 ca      1  GRA         0.000000
      7 C           5.6720    0.0000    0.0000 ca      1  GRA         0.000000
      8 C           6.3810    1.2280    0.0000 ca      1  GRA         0.000000
      9 C           8.5080    0.0000    0.0000 ca      1  GRA         0.000000
     10 C           7.7990    1.2280    0.0000 ca      1  GRA         0.000000
     11 C           9.9260    0.0000    0.0000 ca      1  GRA         0.000000
     12 C          10.6350    1.2280    0.0000 ca      1  GRA         0.000000
     13 C          12.7620    0.0000    0.0000 ca      1  GRA         0.000000
     14 C          12.0530    1.2280    0.0000 ca      1  GRA         0.000000
     15 C          14.1800    0.0000    0.0000 ca      1  GRA         0.000000
     16 C          14.8890    1.2280    0.0000 ca      1  GRA         0.000000
     17 C          17.0160    0.0000    0.0000 ca      1  GRA         0.000000
     18 C          16.3070    1.2280    0.0000 ca      1  GRA         0.000000
     19 C          18.4340    0.0000    0.0000 ca      1  GRA         0.000000
     20 C          19.1430    1.2280    0.0000 ca      1  GRA         0.000000
     21 C          21.2700    0.0000    0.0000 ca      1  GRA         0.000000
     22 C          20.5610    1.2280    0.0000 ca      1  GRA         0.000000
     23 C          22.6880    0.0000    0.0000 ca      1  GRA         0.000000
     24 C          23.3970    1.2280    0.0000 ca      1  GRA         0.000000
     25 C          25.5240    0.0000    0.0000 ca      1  GRA         0.000000
     26 C          24.8150    1.2280    0.0000 ca      1  GRA         0.000000
     27 C          26.9420    0.0000    0.0000 ca      1  GRA         0.000000
     28 C          27.6510    1.2280    0.0000 ca      1  GRA         0.000000
     29 C          29.7780    0.0000    0.0000 ca      1  GRA         0.000000
     30 C          29.0690    1.2280    0.0000 ca      1  GRA         0.000000
     31 C          31.1960    0.0000    0.0000 ca      1  GRA         0.000000
     32 C          31.9050    1.2280    0.0000 ca      1  GRA         0.000000
     33 C          34.0320    0.0000    0.0000 ca      1  GRA         0.000000
     34 C          33.3230    1.2280    0.0000 ca      1  GRA         0.000000
     35 C          35.4500    0.0000    0.0000 ca      1  GRA         0.000000
     36 C          36.1590    1.2280    0.0000 ca      1  GRA         0.000000
     37 C          38.2860    0.0000    0.0000 ca      1  GRA         0.000000
     38 C          37.5770    1.2280    0.0000 ca      1  GRA         0.000000
     39 C          39.7040    0.0000    0.0000 ca      1  GRA         0.000000
     40 C          40.4130    1.2280    0.0000 ca      1  GRA         0.000000
     41 C          42.5400    0.0000    0.0000 ca      1  GRA         0.000000
     42 C          41.8310    1.2280    0.0000 ca      1  GRA         0.000000
     43 C          43.9580    0.0000    0.0000 ca      1  GRA         0.000000
     44 C          44.6670    1.2280    0.0000 ca      1  GRA         0.000000
     45 C          46.7940    0.0000    0.0000 ca      1  GRA         0.000000
     46 C          46.0850    1.2280    0.0000 ca      1  GRA         0.000000
     47 C          48.2120    0.0000    0.0000 ca      1  GRA         0.000000
     48 C          48.9210    1.2280    0.0000 ca      1  GRA         0.000000
     49 C          51.0480    0.0000    0.0000 ca      1  GRA         0.000000
     50 C          50.3390    1.2280    0.0000 ca      1  GRA         0.000000
     51 C          52.4660    0.0000    0.0000 ca      1  GRA         0.000000
     52 C          53.1750    1.2280    0.0000 ca      1  GRA         0.000000
     53 C          55.3020    0.0000    0.0000 ca      1  GRA         0.000000
     54 C          54.5930    1.2280    0.0000 ca      1  GRA         0.000000
     55 C          56.7200    0.0000    0.0000 ca      1  GRA         0.000000
     56 C          57.4290    1.2280    0.0000 ca      1  GRA         0.000000
     57 C          59.5560    0.0000    0.0000 ca      1  GRA         0.000000
     58 C          58.8470    1.2280    0.0000 ca      1  GRA         0.000000
     59 C          60.9740    0.0000    0.0000 ca      1  GRA         0.000000
     60 C          61.6830    1.2280    0.0000 ca      1  GRA         0.000000
     61 C          63.8100    0.0000    0.0000 ca      1  GRA         0.000000
     62 C          63.1010    1.2280    0.0000 ca      1  GRA         0.000000
     63 C          65.2280    0.0000    0.0000 ca      1  GRA         0.000000
     64 C          65.9370    1.2280    0.0000 ca      1  GRA         0.000000
     65 C          68.0640    0.0000    0.0000 ca      1  GRA         0.000000
     66 C          67.3550    1.2280    0.0000 ca      1  GRA         0.000000
     67 C          69.4820    0.0000    0.0000 ca      1  GRA         0.000000
     68 C          70.1910    1.2280    0.0000 ca      1  GRA         0.000000
     69 C          72.3180    0.0000    0.0000 ca      1  GRA         0.000000
     70 C          71.6090    1.2280    0.0000 ca      1  GRA         0.000000
     71 C          73.7360    0.0000    0.0000 ca      1  GRA         0.000000
     72 C          74.4450    1.2280    0.0000 ca      1  GRA         0.000000
     73 C          76.5720    0.0000    0.0000 ca      1  GRA         0.000000
     74 C          75.8630    1.2280    0.0000 ca      1  GRA         0.000000
     75 C          77.9900    0.0000    0.0000 ca      1  GRA         0.000000
     76 C          78.6990    1.2280    0.0000 ca      1  GRA         0.000000
     77 C          80.8260    0.0000    0.0000 ca      1  GRA         0.000000
     78 C          80.1170    1.2280    0.0000 ca      1  GRA         0.000000
     79 C          82.2440    0.0000    0.0000 ca      1  GRA         0.000000
     80 C          82.9530    1.2280    0.0000 ca      1  GRA         0.000000
     81 C          85.0800    0.0000    0.0000 ca      1  GRA         0.000000
     82 C          84.3710    1.2280    0.0000 ca      1  GRA         0.000000
     83 C          86.4980    0.0000    0.0000 ca      1  GRA         0.000000
     84 C          87.2070    1.2280    0.0000 ca      1  GRA         0.000000
     85 C          89.3340    0.0000    0.0000 ca      1  GRA         0.000000
     86 C          88.6250    1.2280    0.0000 ca      1  GRA         0.000000
     87 C          90.7520    0.0000    0.0000 ca      1  GRA         0.000000
     88 C          91.4610    1.2280    0.0000 ca      1  GRA         0.000000
     89 C          93.5880    0.0000    0.0000 ca      1  GRA         0.000000
     90 C          92.8790    1.2280    0.0000 ca      1  GRA         0.000000
     91 C          95.0060    0.0000    0.0000 ca      1  GRA         0.000000
     92 C          95.7150    1.2280    0.0000 ca      1  GRA         0.000000
     93 C          97.8420    0.0000    0.0000 ca      1  GRA         0.000000
     94 C          97.1330    1.2280    0.0000 ca      1  GRA         0.000000
     95 C          99.2600    0.0000    0.0000 ca      1  GRA         0.000000
     96 C          99.9690    1.2280    0.0000 ca      1  GRA         0.000000
     97 C         102.0960    0.0000    0.0000 ca      1  GRA         0.000000
     98 C         101.3870    1.2280    0.0000 ca      1  GRA         0.000000
     99 C         103.5140    0.0000    0.0000 ca      1  GRA         0.000000
    100 C         104.2230    1.2280    0.0000 ca      1  GRA         0.000000
    101 C         106.3500    0.0000    0.0000 ca      1  GRA         0.000000
    102 C         105.6410    1.2280    0.0000 ca      1  GRA         0.000000
    103 C         107.7680    0.0000    0.0000 ca      1  GRA         0.000000
    104 C         108.4770    1.2280    0.0000 ca      1  GRA         0.000000
    105 C         110.6040    0.0000    0.0000 ca      1  GRA         0.000000
    106 C         109.8950    1.2280    0.0000 ca      1  GRA         0.000000
    107 C         112.0220    0.0000    0.0000 ca      1  GRA         0.000000
    108 C         112.7310    1.2280    0.0000 ca      1  GRA         0.000000
    109 C         114.8580    0.0000    0.0000 ca      1  GRA         0.000000
    110 C         114.1490    1.2280    0.0000 ca      1  GRA         0.000000
    111 C         116.2760    0.0000    0.0000 ca      1  GRA         0.000000
    112 C         116.9850    1.2280    0.0000 ca      1  GRA         0.000000
    113 C         119.1120    0.0000    0.0000 ca      1  GRA         0.000000
    114 C         118.4030    1.2280    0.0000 ca      1  GRA         0.000000
    115 C         120.5300    0.0000    0.0000 ca      1  GRA         0.000000
    116 C         121.2390    1.2280    0.0000 ca      1  GRA         0.000000
    117 C         123.3660    0.0000    0.0000 ca      1  GRA         0.000000
    118 C         122.6570    1.2280    0.0000 ca      1  GRA         0.000000
    119 C         124.7840    0.0000    0.0000 ca      1  GRA         0.000000
    120 C         125.4930    1.2280    0.0000 ca      1  GRA         0.000000
    121 C         127.6200    0.0000    0.0000 ca      1  GRA         0.000000
    122 C         126.9110    1.2280    0.0000 ca      1  GRA         0.000000
    123 C         129.0380    0.0000    0.0000 ca      1  GRA         0.000000
    124 C         129.7470    1.2280    0.0000 ca      1  GRA         0.000000
    125 C         131.8740    0.0000    0.0000 ca      1  GRA         0.000000
    126 C         131.1650    1.2280    0.0000 ca      1  GRA         0.000000
    127 C         133.2920    0.0000    0.0000 ca      1  GRA         0.000000
    128 C         134.0010    1.2280    0.0000 ca      1  GRA         0.000000
    129 C         136.1280    0.0000    0.0000 ca      1  GRA         0.000000
    130 C         135.4190    1.2280    0.0000 ca      1  GRA         0.000000
    131 C         137.5460    0.0000    0.0000 ca      1  GRA         0.000000
    132 C         138.2550    1.2280    0.0000 ca      1  GRA         0.000000
    133 C         140.3820    0.0000    0.0000 ca      1  GRA         0.000000
    134 C         139.6730    1.2280    0.0000 ca      1  GRA         0.000000
    135 C         141.8000    0.0000    0.0000 ca      1  GRA         0.000000
    136 C         142.5090    1.2280    0.0000 ca      1  GRA         0.000000
    137 C         144.6360    0.0000    0.0000 ca      1  GRA         0.000000
    138 C         143.9270    1.2280    0.0000 ca      1  GRA         0.000000
    139 C         146.0540    0.0000    0.0000 ca      1  GRA         0.000000
    140 C         146.7630    1.2280    0.0000 ca      1  GRA         0.000000
    141 C         148.8900    0.0000    0.0000 ca      1  GRA         0.000000
    142 C         148.1810    1.2280    0.0000 ca      1  GRA         0.000000
    143 C         150.3080    0.0000    0.0000 ca      1  GRA         0.000000
    144 C         151.0170    1.2280    0.0000 ca      1  GRA         0.000000
    145 C         153.1440    0.0000    0.0000 ca      1  GRA         0.000000
    146 C         152.4350    1.2280    0.0000 ca      1  GRA         0.000000
    147 C         154.5620    0.0000    0.0000 ca      1  GRA         0.000000
    148 C         155.2710    1.2280    0.0000 ca      1  GRA         0.000000
    149 C         157.3980    0.0000    0.0000 ca      1  GRA         0.000000
    150 C         156.6890    1.2280    0.0000 ca      1  GRA         0.000000
    151 C         158.8160    0.0000    0.0000 ca      1  GRA         0.000000
    152 C         159.5250    1.2280    0.0000 ca      1  GRA         0.000000
    153 C         161.6520    0.0000    0.0000 ca      1  GRA         0.000000
    154 C         160.9430    1.2280    0.0000 ca      1  GRA         0.000000
    155 C         163.0700    0.0000    0.0000 ca      1  GRA         0.000000
    156 C         163.7790    1.2280    0.0000 ca      1  GRA         0.000000
    157 C         165.9060    0.0000    0.0000 ca      1  GRA         0.000000
    158 C         165.1970    1.2280    0.0000 ca      1  GRA         0.000000
    159 C         167.3240    0.0000    0.0000 ca      1  GRA         0.000000
    160 C         168.0330    1.2280    0.0000 ca      1  GRA         0.000000
    161 C         170.1600    0.0000    0.0000 ca      1  GRA         0.000000
    162 C         169.4510    1.2280    0.0000 ca      1  GRA         0.000000
    163 C         171.5780    0.0000    0.0000 ca      1  GRA         0.000000
    164 C         172.2870    1.2280    0.0000 ca      1  GRA         0.000000
    165 C         174.4140    0.0000    0.0000 ca      1  GRA         0.000000
    166 C         173.7050    1.2280    0.0000 ca      1  GRA         0.000000
    167 C         175.8320    0.0000    0.0000 ca      1  GRA         0.000000
    168 C         176.5410    1.2280    0.0000 ca      1  GRA         0.000000
    169 C         178.6680    0.0000    0.0000 ca      1  GRA         0.000000
    170 C         177.9590    1.2280    0.0000 ca      1  GRA         0.000000
    171 C         180.0860    0.0000    0.0000 ca      1  GRA         0.000000
    172 C         180.7950    1.2280    0.0000 ca      1  GRA         0.000000
    173 C           0.0000    2.4560    0.0000 ca      1  GRA         0.000000
    174 C          -0.7090    3.6841    0.0000 ca      1  GRA         0.000000
    175 C           1.4180    2.4560    0.0000 ca      1  GRA         0.000000
    176 C           2.1270    3.6841    0.0000 ca      1  GRA         0.000000
    177 C           4.2540    2.4560    0.0000 ca      1  GRA         0.000000
    178 C           3.5450    3.6841    0.0000 ca      1  GRA         0.000000
    179 C           5.6720    2.4560    0.0000 ca      1  GRA         0.000000
    180 C           6.3810    3.6841    0.0000 ca      1  GRA         0.000000
    181 C           8.5080    2.4560    0.0000 ca      1  GRA         0.000000
    182 C           7.7990    3.6841    0.0000 ca      1  GRA         0.000000
    183 C           9.9260    2.4560    0.0000 ca      1  GRA         0.000000
    184 C          10.6350    3.6841    0.0000 ca      1  GRA         0.000000
    185 C          12.7620    2.4560    0.0000 ca      1  GRA         0.000000
    186 C          12.0530    3.6841    0.0000 ca      1  GRA         0.000000
    187 C          14.1800    2.4560    0.0000 ca      1  GRA         0.000000
    188 C          14.8890    3.6841    0.0000 ca      1  GRA         0.000000
    189 C          17.0160    2.4560    0.0000 ca      1  GRA         0.000000
    190 C          16.3070    3.6841    0.0000 ca      1  GRA         0.000000
    191 C          18.4340    2.4560    0.0000 ca      1  GRA         0.000000
    192 C          19.1430    3.6841    0.0000 ca      1  GRA         0.000000
    193 C          21.2700    2.4560    0.0000 ca      1  GRA         0.000000
    194 C          20.5610    3.6841    0.0000 ca      1  GRA         0.000000
    195 C          22.6880    2.4560    0.0000 ca      1  GRA         0.000000
    196 C          23.3970    3.6841    0.0000 ca      1  GRA         0.000000
    197 C          25.5240    2.4560    0.0000 ca      1  GRA         0.000000
    198 C          24.8150    3.6841    0.0000 ca      1  GRA         0.000000
    199 C          26.9420    2.4560    0.0000 ca      1  GRA         0.000000
    200 C          27.6510    3.6841    0.0000 ca      1  GRA         0.000000
    201 C          29.7780    2.4560    0.0000 ca      1  GRA         0.000000
    202 C          29.0690    3.6841    0.0000 ca      1  GRA         0.000000
    203 C          31.1960    2.4560    0.0000 ca      1  GRA         0.000000
    204 C          31.9050    3.6841    0.0000 ca      1  GRA         0.000000
    205 C          34.0320    2.4560    0.0000 ca      1  GRA         0.000000
    206 C          33.3230    3.6841    0.0000 ca      1  GRA         0.000000
    207 C          35.4500    2.4560    0.0000 ca      1  GRA         0.000000
    208 C          36.1590    3.6841    0.0000 ca      1  GRA         0.000000
    209 C          38.2860    2.4560    0.0000 ca      1  GRA         0.000000
    210 C          37.5770    3.6841    0.0000 ca      1  GRA         0.000000
    211 C          39.7040    2.4560    0.0000 ca      1  GRA         0.000000
    212 C          40.4130    3.6841    0.0000 ca      1  GRA         0.000000
    213 C          42.5400    2.4560    0.0000 ca      1  GRA         0.000000
    214 C          41.8310    3.6841    0.0000 ca      1  GRA         0.000000
    215 C          43.9580    2.4560    0.0000 ca      1  GRA         0.000000
    216 C          44.6670    3.6841    0.0000 ca      1  GRA         0.000000
    217 C          46.7940    2.4560    0.0000 ca      1  GRA         0.000000
    218 C          46.0850    3.6841    0.0000 ca      1  GRA         0.000000
    219 C          48.2120    2.4560    0.0000 ca      1  GRA         0.000000
    220 C          48.9210    3.6841    0.0000 ca      1  GRA         0.000000
    221 C          51.0480    2.4560    0.0000 ca      1  GRA         0.000000
    222 C          50.3390    3.6841    0.0000 ca      1  GRA         0.000000
    223 C          52.4660    2.4560    0.0000 ca      1  GRA         0.000000
    224 C          53.1750    3.6841    0.0000 ca      1  GRA         0.000000
    225 C          55.3020    2.4560    0.0000 ca      1  GRA         0.000000
    226 C          54.5930    3.6841    0.0000 ca      1  GRA         0.000000
    227 C          56.7200    2.4560    0.0000 ca      1  GRA         0.000000
    228 C          57.4290    3.6841    0.0000 ca      1  GRA         0.000000
    229 C          59.5560    2.4560    0.0000 ca      1  GRA         0.000000
    230 C          58.8470    3.6841    0.0000 ca      1  GRA         0.000000
    231 C          60.9740    2.4560    0.0000 ca      1  GRA         0.000000
    232 C          61.6830    3.6841    0.0000 ca      1  GRA         0.000000
    233 C          63.8100    2.4560    0.0000 ca      1  GRA         0.000000
    234 C          63.1010    3.6841    0.0000 ca      1  GRA         0.000000
    235 C          65.2280    2.4560    0.0000 ca      1  GRA         0.000000
    236 C          65.9370    3.6841    0.0000 ca      1  GRA         0.000000
    237 C          68.0640    2.4560    0.0000 ca      1  GRA         0.000000
    238 C          67.3550    3.6841    0.0000 ca      1  GRA         0.000000
    239 C          69.4820    2.4560    0.0000 ca      1  GRA         0.000000
    240 C          70.1910    3.6841    0.0000 ca      1  GRA         0.000000
    241 C          72.3180    2.4560    0.0000 ca      1  GRA         0.000000
    242 C          71.6090    3.6841    0.0000 ca      1  GRA         0.000000
    243 C          73.7360    2.4560    0.0000 ca      1  GRA         0.000000
    244 C          74.4450    3.6841    0.0000 ca      1  GRA         0.000000
    245 C          76.5720    2.4560    0.0000 ca      1  GRA         0.000000
    246 C          75.8630    3.6841    0.0000 ca      1  GRA         0.000000
    247 C          77.9900    2.4560    0.0000 ca      1  GRA         0.000000
    248 C          78.6990    3.6841    0.0000 ca      1  GRA         0.000000
    249 C          80.8260    2.4560    0.0000 ca      1  GRA         0.000000
    250 C          80.1170    3.6841    0.0000 ca      1  GRA         0.000000
    251 C          82.2440    2.4560    0.0000 ca      1  GRA         0.000000
    252 C          82.9530    3.6841    0.0000 ca      1  GRA         0.000000
    253 C          85.0800    2.4560    0.0000 ca      1  GRA         0.000000
    254 C          84.3710    3.6841    0.0000 ca      1  GRA         0.000000
    255 C          86.4980    2.4560    0.0000 ca      1  GRA         0.000000
    256 C          87.2070    3.6841    0.0000 ca      1  GRA         0.000000
    257 C          89.3340    2.4560    0.0000 ca      1  GRA         0.000000
    258 C          88.6250    3.6841    0.0000 ca      1  GRA         0.000000
    259 C          90.7520    2.4560    0.0000 ca      1  GRA         0.000000
    260 C          91.4610    3.6841    0.0000 ca      1  GRA         0.000000
    261 C          93.5880    2.4560    0.0000 ca      1  GRA         0.000000
    262 C          92.8790    3.6841    0.0000 ca      1  GRA         0.000000
    263 C          95.0060    2.4560    0.0000 ca      1  GRA         0.000000
    264 C          95.7150    3.6841    0.0000 ca      1  GRA         0.000000
    265 C          97.8420    2.4560    0.0000 ca      1  GRA         0.000000
    266 C          97.1330    3.6841    0.0000 ca      1  GRA         0.000000
    267 C          99.2600    2.4560    0.0000 ca      1  GRA         0.000000
    268 C          99.9690    3.6841    0.0000 ca      1  GRA         0.000000
    269 C         102.0960    2.4560    0.0000 ca      1  GRA         0.000000
    270 C         101.3870    3.6841    0.0000 ca      1  GRA         0.000000
    271 C         103.5140    2.4560    0.0000 ca      1  GRA         0.000000
    272 C         104.2230    3.6841    0.0000 ca      1  GRA         0.000000
    273 C         106.3500    2.4560    0.0000 ca      1  GRA         0.000000
    274 C         105.6410    3.6841    0.0000 ca      1  GRA         0.000000
    275 C         107.7680    2.4560    0.0000 ca      1  GRA         0.000000
    276 C         108.4770    3.6841    0.0000 ca      1  GRA         0.000000
    277 C         110.6040    2.4560    0.0000 ca      1  GRA         0.000000
    278 C         109.8950    3.6841    0.0000 ca      1  GRA         0.000000
    279 C         112.0220    2.4560    0.0000 ca      1  GRA         0.000000
    280 C         112.7310    3.6841    0.0000 ca      1  GRA         0.000000
    281 C         114.8580    2.4560    0.0000 ca      1  GRA         0.000000
    282 C         114.1490    3.6841    0.0000 ca      1  GRA         0.000000
    283 C         116.2760    2.4560    0.0000 ca      1  GRA         0.000000
    284 C         116.9850    3.6841    0.0000 ca      1  GRA         0.000000
    285 C         119.1120    2.4560    0.0000 ca      1  GRA         0.000000
    286 C         118.4030    3.6841    0.0000 ca      1  GRA         0.000000
    287 C         120.5300    2.4560    0.0000 ca      1  GRA         0.000000
    288 C         121.2390    3.6841    0.0000 ca      1  GRA         0.000000
    289 C         123.3660    2.4560    0.0000 ca      1  GRA         0.000000
    290 C         122.6570    3.6841    0.0000 ca      1  GRA         0.000000
    291 C         124.7840    2.4560    0.0000 ca      1  GRA         0.000000
    292 C         125.4930    3.6841    0.0000 ca      1  GRA         0.000000
    293 C         127.6200    2.4560    0.0000 ca      1  GRA         0.000000
    294 C         126.9110    3.6841    0.0000 ca      1  GRA         0.000000
    295 C         129.0380    2.4560    0.0000 ca      1  GRA         0.000000
    296 C         129.7470    3.6841    0.0000 ca      1  GRA         0.000000
    297 C         131.8740    2.4560    0.0000 ca      1  GRA         0.000000
    298 C         131.1650    3.6841    0.0000 ca      1  GRA         0.000000
    299 C         133.2920    2.4560    0.0000 ca      1  GRA         0.000000
    300 C         134.0010    3.6841    0.0000 ca      1  GRA         0.000000
    301 C         136.1280    2.4560    0.0000 ca      1  GRA         0.000000
    302 C         135.4190    3.6841    0.0000 ca      1  GRA         0.000000
    303 C         137.5460    2.4560    0.0000 ca      1  GRA         0.000000
    304 C         138.2550    3.6841    0.0000 ca      1  GRA         0.000000
    305 C         140.3820    2.4560    0.0000 ca      1  GRA         0.000000
    306 C         139.6730    3.6841    0.0000 ca      1  GRA         0.000000
    307 C         141.8000    2.4560    0.0000 ca      1  GRA         0.000000
    308 C         142.5090    3.6841    0.0000 ca      1  GRA         0.000000
    309 C         144.6360    2.4560    0.0000 ca      1  GRA         0.000000
    310 C         143.9270    3.6841    0.0000 ca      1  GRA         0.000000
    311 C         146.0540    2.4560    0.0000 ca      1  GRA         0.000000
    312 C         146.7630    3.6841    0.0000 ca      1  GRA         0.000000
    313 C         148.8900    2.4560    0.0000 ca      1  GRA         0.000000
    314 C         148.1810    3.6841    0.0000 ca      1  GRA         0.000000
    315 C         150.3080    2.4560    0.0000 ca      1  GRA         0.000000
    316 C         151.0170    3.6841    0.0000 ca      1  GRA         0.000000
    317 C         153.1440    2.4560    0.0000 ca      1  GRA         0.000000
    318 C         152.4350    3.6841    0.0000 ca      1  GRA         0.000000
    319 C         154.5620    2.4560    0.0000 ca      1  GRA         0.000000
    320 C         155.2710    3.6841    0.0000 ca      1  GRA         0.000000
    321 C         157.3980    2.4560    0.0000 ca      1  GRA         0.000000
    322 C         156.6890    3.6841    0.0000 ca      1  GRA         0.000000
    323 C         158.8160    2.4560    0.0000 ca      1  GRA         0.000000
    324 C         159.5250    3.6841    0.0000 ca      1  GRA         0.000000
    325 C         161.6520    2.4560    0.0000 ca      1  GRA         0.000000
    326 C         160.9430    3.6841    0.0000 ca      1  GRA         0.000000
    327 C         163.0700    2.4560    0.0000 ca      1  GRA         0.000000
    328 C         163.7790    3.6841    0.0000 ca      1  GRA         0.000000
    329 C         165.9060    2.4560    0.0000 ca      1  GRA         0.000000
    330 C         165.1970    3.6841    0.0000 ca      1  GRA         0.000000
    331 C         167.3240    2.4560    0.0000 ca      1  GRA         0.000000
    332 C         168.0330    3.6841    0.0000 ca      1  GRA         0.000000
    333 C         170.1600    2.4560    0.0000 ca      1  GRA         0.000000
    334 C         169.4510    3.6841    0.0000 ca      1  GRA         0.000000
    335 C         171.5780    2.4560    0.0000 ca      1  GRA         0.000000
    336 C         172.2870    3.6841    0.0000 ca      1  GRA         0.000000
    337 C         174.4140    2.4560    0.0000 ca      1  GRA         0.000000
    338 C         173.7050    3.6841    0.0000 ca      1  GRA         0.000000
    339 C         175.8320    2.4560    0.0000 ca      1  GRA         0.000000
    340 C         176.5410    3.6841    0.0000 ca      1  GRA         0.000000
    341 C         178.6680    2.4560    0.0000 ca      1  GRA         0.000000
    342 C         177.9590    3.6841    0.0000 ca      1  GRA         0.000000
    343 C         180.0860    2.4560    0.0000 ca      1  GRA         0.000000
    344 C         180.7950    3.6841    0.0000 ca      1  GRA         0.000000
    345 C           0.0000    4.9121    0.0000 ca      1  GRA         0.000000
    346 C          -0.7090    6.1401    0.0000 ca      1  GRA         0.000000
    347 C           1.4180    4.9121    0.0000 ca      1  GRA         0.000000
    348 C           2.1270    6.1401    0.0000 ca      1  GRA         0.000000
    349 C           4.2540    4.9121    0.0000 ca      1  GRA         0.000000
    350 C           3.5450    6.1401    0.0000 ca      1  GRA         0.000000
    351 C           5.6720    4.9121    0.0000 ca      1  GRA         0.000000
    352 C           6.3810    6.1401    0.0000 ca      1  GRA         0.000000
    353 C           8.5080    4.9121    0.0000 ca      1  GRA         0.000000
    354 C           7.7990    6.1401    0.0000 ca      1  GRA         0.000000
    355 C           9.9260    4.9121    0.0000 ca      1  GRA         0.000000
    356 C          10.6350    6.1401    0.0000 ca      1  GRA         0.000000
    357 C          12.7620    4.9121    0.0000 ca      1  GRA         0.000000
    358 C          12.0530    6.1401    0.0000 ca      1  GRA         0.000000
    359 C          14.1800    4.9121    0.0000 ca      1  GRA         0.000000
    360 C          14.8890    6.1401    0.0000 ca      1  GRA         0.000000
    361 C          17.0160    4.9121    0.0000 ca      1  GRA         0.000000
    362 C          16.3070    6.1401    0.0000 ca      1  GRA         0.000000
    363 C          18.4340    4.9121    0.0000 ca      1  GRA         0.000000
    364 C          19.1430    6.1401    0.0000 ca      1  GRA         0.000000
    365 C          21.2700    4.9121    0.0000 ca      1  GRA         0.000000
    366 C          20.5610    6.1401    0.0000 ca      1  GRA         0.000000
    367 C          22.6880    4.9121    0.0000 ca      1  GRA         0.000000
    368 C          23.3970    6.1401    0.0000 ca      1  GRA         0.000000
    369 C          25.5240    4.9121    0.0000 ca      1  GRA         0.000000
    370 C          24.8150    6.1401    0.0000 ca      1  GRA         0.000000
    371 C          26.9420    4.9121    0.0000 ca      1  GRA         0.000000
    372 C          27.6510    6.1401    0.0000 ca      1  GRA         0.000000
    373 C          29.7780    4.9121    0.0000 ca      1  GRA         0.000000
    374 C          29.0690    6.1401    0.0000 ca      1  GRA         0.000000
    375 C          31.1960    4.9121    0.0000 ca      1  GRA         0.000000
    376 C          31.9050    6.1401    0.0000 ca      1  GRA         0.000000
    377 C          34.0320    4.9121    0.0000 ca      1  GRA         0.000000
    378 C          33.3230    6.1401    0.0000 ca      1  GRA         0.000000
    379 C          35.4500    4.9121    0.0000 ca      1  GRA         0.000000
    380 C          36.1590    6.1401    0.0000 ca      1  GRA         0.000000
    381 C          38.2860    4.9121    0.0000 ca      1  GRA         0.000000
    382 C          37.5770    6.1401    0.0000 ca      1  GRA         0.000000
    383 C          39.7040    4.9121    0.0000 ca      1  GRA         0.000000
    384 C          40.4130    6.1401    0.0000 ca      1  GRA         0.000000
    385 C          42.5400    4.9121    0.0000 ca      1  GRA         0.000000
    386 C          41.8310    6.1401    0.0000 ca      1  GRA         0.000000
    387 C          43.9580    4.9121    0.0000 ca      1  GRA         0.000000
    388 C          44.6670    6.1401    0.0000 ca      1  GRA         0.000000
    389 C          46.7940    4.9121    0.0000 ca      1  GRA         0.000000
    390 C          46.0850    6.1401    0.0000 ca      1  GRA         0.000000
    391 C          48.2120    4.9121    0.0000 ca      1  GRA         0.000000
    392 C          48.9210    6.1401    0.0000 ca      1  GRA         0.000000
    393 C          51.0480    4.9121    0.0000 ca      1  GRA         0.000000
    394 C          50.3390    6.1401    0.0000 ca      1  GRA         0.000000
    395 C          52.4660    4.9121    0.0000 ca      1  GRA         0.000000
    396 C          53.1750    6.1401    0.0000 ca      1  GRA         0.000000
    397 C          55.3020    4.9121    0.0000 ca      1  GRA         0.000000
    398 C          54.5930    6.1401    0.0000 ca      1  GRA         0.000000
    399 C          56.7200    4.9121    0.0000 ca      1  GRA         0.000000
    400 C          57.4290    6.1401    0.0000 ca      1  GRA         0.000000
    401 C          59.5560    4.9121    0.0000 ca      1  GRA         0.000000
    402 C          58.8470    6.1401    0.0000 ca      1  GRA         0.000000
    403 C          60.9740    4.9121    0.0000 ca      1  GRA         0.000000
    404 C          61.6830    6.1401    0.0000 ca      1  GRA         0.000000
    405 C          63.8100    4.9121    0.0000 ca      1  GRA         0.000000
    406 C          63.1010    6.1401    0.0000 ca      1  GRA         0.000000
    407 C          65.2280    4.9121    0.0000 ca      1  GRA         0.000000
    408 C          65.9370    6.1401    0.0000 ca      1  GRA         0.000000
    409 C          68.0640    4.9121    0.0000 ca      1  GRA         0.000000
    410 C          67.3550    6.1401    0.0000 ca      1  GRA         0.000000
    411 C          69.4820    4.9121    0.0000 ca      1  GRA         0.000000
    412 C          70.1910    6.1401    0.0000 ca      1  GRA         0.000000
    413 C          72.3180    4.9121    0.0000 ca      1  GRA         0.000000
    414 C          71.6090    6.1401    0.0000 ca      1  GRA         0.000000
    415 C          73.7360    4.9121    0.0000 ca      1  GRA         0.000000
    416 C          74.4450    6.1401    0.0000 ca      1  GRA         0.000000
    417 C          76.5720    4.9121    0.0000 ca      1  GRA         0.000000
    418 C          75.8630    6.1401    0.0000 ca      1  GRA         0.000000
    419 C          77.9900    4.9121    0.0000 ca      1  GRA         0.000000
    420 C          78.6990    6.1401    0.0000 ca      1  GRA         0.000000
    421 C          80.8260    4.9121    0.0000 ca      1  GRA         0.000000
    422 C          80.1170    6.1401    0.0000 ca      1  GRA         0.000000
    423 C          82.2440    4.9121    0.0000 ca      1  GRA         0.000000
    424 C          82.9530    6.1401    0.0000 ca      1  GRA         0.000000
    425 C          85.0800    4.9121    0.0000 ca      1  GRA         0.000000
    426 C          84.3710    6.1401    0.0000 ca      1  GRA         0.000000
    427 C          86.4980    4.9121    0.0000 ca      1  GRA         0.000000
    428 C          87.2070    6.1401    0.0000 ca      1  GRA         0.000000
    429 C          89.3340    4.9121    0.0000 ca      1  GRA         0.000000
    430 C          88.6250    6.1401    0.0000 ca      1  GRA         0.000000
    431 C          90.7520    4.9121    0.0000 ca      1  GRA         0.000000
    432 C          91.4610    6.1401    0.0000 ca      1  GRA         0.000000
    433 C          93.5880    4.9121    0.0000 ca      1  GRA         0.000000
    434 C          92.8790    6.1401    0.0000 ca      1  GRA         0.000000
    435 C          95.0060    4.9121    0.0000 ca      1  GRA         0.000000
    436 C          95.7150    6.1401    0.0000 ca      1  GRA         0.000000
    437 C          97.8420    4.9121    0.0000 ca      1  GRA         0.000000
    438 C          97.1330    6.1401    0.0000 ca      1  GRA         0.000000
    439 C          99.2600    4.9121    0.0000 ca      1  GRA         0.000000
    440 C          99.9690    6.1401    0.0000 ca      1  GRA         0.000000
    441 C         102.0960    4.9121    0.0000 ca      1  GRA         0.000000
    442 C         101.3870    6.1401    0.0000 ca      1  GRA         0.000000
    443 C         103.5140    4.9121    0.0000 ca      1  GRA         0.000000
    444 C         104.2230    6.1401    0.0000 ca      1  GRA         0.000000
    445 C         106.3500    4.9121    0.0000 ca      1  GRA         0.000000
    446 C         105.6410    6.1401    0.0000 ca      1  GRA         0.000000
    447 C         107.7680    4.9121    0.0000 ca      1  GRA         0.000000
    448 C         108.4770    6.1401    0.0000 ca      1  GRA         0.000000
    449 C         110.6040    4.9121    0.0000 ca      1  GRA         0.000000
    450 C         109.8950    6.1401    0.0000 ca      1  GRA         0.000000
    451 C         112.0220    4.9121    0.0000 ca      1  GRA         0.000000
    452 C         112.7310    6.1401    0.0000 ca      1  GRA         0.000000
    453 C         114.8580    4.9121    0.0000 ca      1  GRA         0.000000
    454 C         114.1490    6.1401    0.0000 ca      1  GRA         0.000000
    455 C         116.2760    4.9121    0.0000 ca      1  GRA         0.000000
    456 C         116.9850    6.1401    0.0000 ca      1  GRA         0.000000
    457 C         119.1120    4.9121    0.0000 ca      1  GRA         0.000000
    458 C         118.4030    6.1401    0.0000 ca      1  GRA         0.000000
    459 C         120.5300    4.9121    0.0000 ca      1  GRA         0.000000
    460 C         121.2390    6.1401    0.0000 ca      1  GRA         0.000000
    461 C         123.3660    4.9121    0.0000 ca      1  GRA         0.000000
    462 C         122.6570    6.1401    0.0000 ca      1  GRA         0.000000
    463 C         124.7840    4.9121    0.0000 ca      1  GRA         0.000000
    464 C         125.4930    6.1401    0.0000 ca      1  GRA         0.000000
    465 C         127.6200    4.9121    0.0000 ca      1  GRA         0.000000
    466 C         126.9110    6.1401    0.0000 ca      1  GRA         0.000000
    467 C         129.0380    4.9121    0.0000 ca      1  GRA         0.000000
    468 C         129.7470    6.1401    0.0000 ca      1  GRA         0.000000
    469 C         131.8740    4.9121    0.0000 ca      1  GRA         0.000000
    470 C         131.1650    6.1401    0.0000 ca      1  GRA         0.000000
    471 C         133.2920    4.9121    0.0000 ca      1  GRA         0.000000
    472 C         134.0010    6.1401    0.0000 ca      1  GRA         0.000000
    473 C         136.1280    4.9121    0.0000 ca      1  GRA         0.000000
    474 C         135.4190    6.1401    0.0000 ca      1  GRA         0.000000
    475 C         137.5460    4.9121    0.0000 ca      1  GRA         0.000000
    476 C         138.2550    6.1401    0.0000 ca      1  GRA         0.000000
    477 C         140.3820    4.9121    0.0000 ca      1  GRA         0.000000
    478 C         139.6730    6.1401    0.0000 ca      1  GRA         0.000000
    479 C         141.8000    4.9121    0.0000 ca      1  GRA         0.000000
    480 C         142.5090    6.1401    0.0000 ca      1  GRA         0.000000
    481 C         144.6360    4.9121    0.0000 ca      1  GRA         0.000000
    482 C         143.9270    6.1401    0.0000 ca      1  GRA         0.000000
    483 C         146.0540    4.9121    0.0000 ca      1  GRA         0.000000
    484 C         146.7630    6.1401    0.0000 ca      1  GRA         0.000000
    485 C         148.8900    4.9121    0.0000 ca      1  GRA         0.000000
    486 C         148.1810    6.1401    0.0000 ca      1  GRA         0.000000
    487 C         150.3080    4.9121    0.0000 ca      1  GRA         0.000000
    488 C         151.0170    6.1401    0.0000 ca      1  GRA         0.000000
    489 C         153.1440    4.9121    0.0000 ca      1  GRA         0.000000
    490 C         152.4350    6.1401    0.0000 ca      1  GRA         0.000000
    491 C         154.5620    4.9121    0.0000 ca      1  GRA         0.000000
    492 C         155.2710    6.1401    0.0000 ca      1  GRA         0.000000
    493 C         157.3980    4.9121    0.0000 ca      1  GRA         0.000000
    494 C         156.6890    6.1401    0.0000 ca      1  GRA         0.000000
    495 C         158.8160    4.9121    0.0000 ca      1  GRA         0.000000
    496 C         159.5250    6.1401    0.0000 ca      1  GRA         0.000000
    497 C         161.6520    4.9121    0.0000 ca      1  GRA         0.000000
    498 C         160.9430    6.1401    0.0000 ca      1  GRA         0.000000
    499 C         163.0700    4.9121    0.0000 ca      1  GRA         0.000000
    500 C         163.7790    6.1401    0.0000 ca      1  GRA         0.000000
    501 C         165.9060    4.9121    0.0000 ca      1  GRA         0.000000
    502 C         165.1970    6.1401    0.0000 ca      1  GRA         0.000000
    503 C         167.3240    4.9121    0.0000 ca      1  GRA         0.000000
    504 C         168.0330    6.1401    0.0000 ca      1  GRA         0.000000
    505 C         170.1600    4.9121    0.0000 ca      1  GRA         0.000000
    506 C         169.4510    6.1401    0.0000 ca      1  GRA         0.000000
    507 C         171.5780    4.9121    0.0000 ca      1  GRA         0.000000
    508 C         172.2870    6.1401    0.0000 ca      1  GRA         0.000000
    509 C         174.4140    4.9121    0.0000 ca      1  GRA         0.000000
    510 C         173.7050    6.1401    0.0000 ca      1  GRA         0.000000
    511 C         175.8320    4.9121    0.0000 ca      1  GRA         0.000000
    512 C         176.5410    6.1401    0.0000 ca      1  GRA         0.000000
    513 C         178.6680    4.9121    0.0000 ca      1  GRA         0.000000
    514 C         177.9590    6.1401    0.0000 ca      1  GRA         0.000000
    515 C         180.0860    4.9121    0.0000 ca      1  GRA         0.000000
    516 C         180.7950    6.1401    0.0000 ca      1  GRA         0.000000
    517 C           0.0000    7.3681    0.0000 ca      1  GRA         0.000000
    518 C          -0.7090    8.5962    0.0000 ca      1  GRA         0.000000
    519 C           1.4180    7.3681    0.0000 ca      1  GRA         0.000000
    520 C           2.1270    8.5962    0.0000 ca      1  GRA         0.000000
    521 C           4.2540    7.3681    0.0000 ca      1  GRA         0.000000
    522 C           3.5450    8.5962    0.0000 ca      1  GRA         0.000000
    523 C           5.6720    7.3681    0.0000 ca      1  GRA         0.000000
    524 C           6.3810    8.5962    0.0000 ca      1  GRA         0.000000
    525 C           8.5080    7.3681    0.0000 ca      1  GRA         0.000000
    526 C           7.7990    8.5962    0.0000 ca      1  GRA         0.000000
    527 C           9.9260    7.3681    0.0000 ca      1  GRA         0.000000
    528 C          10.6350    8.5962    0.0000 ca      1  GRA         0.000000
    529 C          12.7620    7.3681    0.0000 ca      1  GRA         0.000000
    530 C          12.0530    8.5962    0.0000 ca      1  GRA         0.000000
    531 C          14.1800    7.3681    0.0000 ca      1  GRA         0.000000
    532 C          14.8890    8.5962    0.0000 ca      1  GRA         0.000000
    533 C          17.0160    7.3681    0.0000 ca      1  GRA         0.000000
    534 C          16.3070    8.5962    0.0000 ca      1  GRA         0.000000
    535 C          18.4340    7.3681    0.0000 ca      1  GRA         0.000000
    536 C          19.1430    8.5962    0.0000 ca      1  GRA         0.000000
    537 C          21.2700    7.3681    0.0000 ca      1  GRA         0.000000
    538 C          20.5610    8.5962    0.0000 ca      1  GRA         0.000000
    539 C          22.6880    7.3681    0.0000 ca      1  GRA         0.000000
    540 C          23.3970    8.5962    0.0000 ca      1  GRA         0.000000
    541 C          25.5240    7.3681    0.0000 ca      1  GRA         0.000000
    542 C          24.8150    8.5962    0.0000 ca      1  GRA         0.000000
    543 C          26.9420    7.3681    0.0000 ca      1  GRA         0.000000
    544 C          27.6510    8.5962    0.0000 ca      1  GRA         0.000000
    545 C          29.7780    7.3681    0.0000 ca      1  GRA         0.000000
    546 C          29.0690    8.5962    0.0000 ca      1  GRA         0.000000
    547 C          31.1960    7.3681    0.0000 ca      1  GRA         0.000000
    548 C          31.9050    8.5962    0.0000 ca      1  GRA         0.000000
    549 C          34.0320    7.3681    0.0000 ca      1  GRA         0.000000
    550 C          33.3230    8.5962    0.0000 ca      1  GRA         0.000000
    551 C          35.4500    7.3681    0.0000 ca      1  GRA         0.000000
    552 C          36.1590    8.5962    0.0000 ca      1  GRA         0.000000
    553 C          38.2860    7.3681    0.0000 ca      1  GRA         0.000000
    554 C          37.5770    8.5962    0.0000 ca      1  GRA         0.000000
    555 C          39.7040    7.3681    0.0000 ca      1  GRA         0.000000
    556 C          40.4130    8.5962    0.0000 ca      1  GRA         0.000000
    557 C          42.5400    7.3681    0.0000 ca      1  GRA         0.000000
    558 C          41.8310    8.5962    0.0000 ca      1  GRA         0.000000
    559 C          43.9580    7.3681    0.0000 ca      1  GRA         0.000000
    560 C          44.6670    8.5962    0.0000 ca      1  GRA         0.000000
    561 C          46.7940    7.3681    0.0000 ca      1  GRA         0.000000
    562 C          46.0850    8.5962    0.0000 ca      1  GRA         0.000000
    563 C          48.2120    7.3681    0.0000 ca      1  GRA         0.000000
    564 C          48.9210    8.5962    0.0000 ca      1  GRA         0.000000
    565 C          51.0480    7.3681    0.0000 ca      1  GRA         0.000000
    566 C          50.3390    8.5962    0.0000 ca      1  GRA         0.000000
    567 C          52.4660    7.3681    0.0000 ca      1  GRA         0.000000
    568 C          53.1750    8.5962    0.0000 ca      1  GRA         0.000000
    569 C          55.3020    7.3681    0.0000 ca      1  GRA         0.000000
    570 C          54.5930    8.5962    0.0000 ca      1  GRA         0.000000
    571 C          56.7200    7.3681    0.0000 ca      1  GRA         0.000000
    572 C          57.4290    8.5962    0.0000 ca      1  GRA         0.000000
    573 C          59.5560    7.3681    0.0000 ca      1  GRA         0.000000
    574 C          58.8470    8.5962    0.0000 ca      1  GRA         0.000000
    575 C          60.9740    7.3681    0.0000 ca      1  GRA         0.000000
    576 C          61.6830    8.5962    0.0000 ca      1  GRA         0.000000
    577 C          63.8100    7.3681    0.0000 ca      1  GRA         0.000000
    578 C          63.1010    8.5962    0.0000 ca      1  GRA         0.000000
    579 C          65.2280    7.3681    0.0000 ca      1  GRA         0.000000
    580 C          65.9370    8.5962    0.0000 ca      1  GRA         0.000000
    581 C          68.0640    7.3681    0.0000 ca      1  GRA         0.000000
    582 C          67.3550    8.5962    0.0000 ca      1  GRA         0.000000
    583 C          69.4820    7.3681    0.0000 ca      1  GRA         0.000000
    584 C          70.1910    8.5962    0.0000 ca      1  GRA         0.000000
    585 C          72.3180    7.3681    0.0000 ca      1  GRA         0.000000
    586 C          71.6090    8.5962    0.0000 ca      1  GRA         0.000000
    587 C          73.7360    7.3681    0.0000 ca      1  GRA         0.000000
    588 C          74.4450    8.5962    0.0000 ca      1  GRA         0.000000
    589 C          76.5720    7.3681    0.0000 ca      1  GRA         0.000000
    590 C          75.8630    8.5962    0.0000 ca      1  GRA         0.000000
    591 C          77.9900    7.3681    0.0000 ca      1  GRA         0.000000
    592 C          78.6990    8.5962    0.0000 ca      1  GRA         0.000000
    593 C          80.8260    7.3681    0.0000 ca      1  GRA         0.000000
    594 C          80.1170    8.5962    0.0000 ca      1  GRA         0.000000
    595 C          82.2440    7.3681    0.0000 ca      1  GRA         0.000000
    596 C          82.9530    8.5962    0.0000 ca      1  GRA         0.000000
    597 C          85.0800    7.3681    0.0000 ca      1  GRA         0.000000
    598 C          84.3710    8.5962    0.0000 ca      1  GRA         0.000000
    599 C          86.4980    7.3681    0.0000 ca      1  GRA         0.000000
    600 C          87.2070    8.5962    0.0000 ca      1  GRA         0.000000
    601 C          89.3340    7.3681    0.0000 ca      1  GRA         0.000000
    602 C          88.6250    8.5962    0.0000 ca      1  GRA         0.000000
    603 C          90.7520    7.3681    0.0000 ca      1  GRA         0.000000
    604 C          91.4610    8.5962    0.0000 ca      1  GRA         0.000000
    605 C          93.5880    7.3681    0.0000 ca      1  GRA         0.000000
    606 C          92.8790    8.5962    0.0000 ca      1  GRA         0.000000
    607 C          95.0060    7.3681    0.0000 ca      1  GRA         0.000000
    608 C          95.7150    8.5962    0.0000 ca      1  GRA         0.000000
    609 C          97.8420    7.3681    0.0000 ca      1  GRA         0.000000
    610 C          97.1330    8.5962    0.0000 ca      1  GRA         0.000000
    611 C          99.2600    7.3681    0.0000 ca      1  GRA         0.000000
    612 C          99.9690    8.5962    0.0000 ca      1  GRA         0.000000
    613 C         102.0960    7.3681    0.0000 ca      1  GRA         0.000000
    614 C         101.3870    8.5962    0.0000 ca      1  GRA         0.000000
    615 C         103.5140    7.3681    0.0000 ca      1  GRA         0.000000
    616 C         104.2230    8.5962    0.0000 ca      1  GRA         0.000000
    617 C         106.3500    7.3681    0.0000 ca      1  GRA         0.000000
    618 C         105.6410    8.5962    0.0000 ca      1  GRA         0.000000
    619 C         107.7680    7.3681    0.0000 ca      1  GRA         0.000000
    620 C         108.4770    8.5962    0.0000 ca      1  GRA         0.000000
    621 C         110.6040    7.3681    0.0000 ca      1  GRA         0.000000
    622 C         109.8950    8.5962    0.0000 ca      1  GRA         0.000000
    623 C         112.0220    7.3681    0.0000 ca      1  GRA         0.000000
    624 C         112.7310    8.5962    0.0000 ca      1  GRA         0.000000
    625 C         114.8580    7.3681    0.0000 ca      1  GRA         0.000000
    626 C         114.1490    8.5962    0.0000 ca      1  GRA         0.000000
    627 C         116.2760    7.3681    0.0000 ca      1  GRA         0.000000
    628 C         116.9850    8.5962    0.0000 ca      1  GRA         0.000000
    629 C         119.1120    7.3681    0.0000 ca      1  GRA         0.000000
    630 C         118.4030    8.5962    0.0000 ca      1  GRA         0.000000
    631 C         120.5300    7.3681    0.0000 ca      1  GRA         0.000000
    632 C         121.2390    8.5962    0.0000 ca      1  GRA         0.000000
    633 C         123.3660    7.3681    0.0000 ca      1  GRA         0.000000
    634 C         122.6570    8.5962    0.0000 ca      1  GRA         0.000000
    635 C         124.7840    7.3681    0.0000 ca      1  GRA         0.000000
    636 C         125.4930    8.5962    0.0000 ca      1  GRA         0.000000
    637 C         127.6200    7.3681    0.0000 ca      1  GRA         0.000000
    638 C         126.9110    8.5962    0.0000 ca      1  GRA         0.000000
    639 C         129.0380    7.3681    0.0000 ca      1  GRA         0.000000
    640 C         129.7470    8.5962    0.0000 ca      1  GRA         0.000000
    641 C         131.8740    7.3681    0.0000 ca      1  GRA         0.000000
    642 C         131.1650    8.5962    0.0000 ca      1  GRA         0.000000
    643 C         133.2920    7.3681    0.0000 ca      1  GRA         0.000000
    644 C         134.0010    8.5962    0.0000 ca      1  GRA         0.000000
    645 C         136.1280    7.3681    0.0000 ca      1  GRA         0.000000
    646 C         135.4190    8.5962    0.0000 ca      1  GRA         0.000000
    647 C         137.5460    7.3681    0.0000 ca      1  GRA         0.000000
    648 C         138.2550    8.5962    0.0000 ca      1  GRA         0.000000
    649 C         140.3820    7.3681    0.0000 ca      1  GRA         0.000000
    650 C         139.6730    8.5962    0.0000 ca      1  GRA         0.000000
    651 C         141.8000    7.3681    0.0000 ca      1  GRA         0.000000
    652 C         142.5090    8.5962    0.0000 ca      1  GRA         0.000000
    653 C         144.6360    7.3681    0.0000 ca      1  GRA         0.000000
    654 C         143.9270    8.5962    0.0000 ca      1  GRA         0.000000
    655 C         146.0540    7.3681    0.0000 ca      1  GRA         0.000000
    656 C         146.7630    8.5962    0.0000 ca      1  GRA         0.000000
    657 C         148.8900    7.3681    0.0000 ca      1  GRA         0.000000
    658 C         148.1810    8.5962    0.0000 ca      1  GRA         0.000000
    659 C         150.3080    7.3681    0.0000 ca      1  GRA         0.000000
    660 C         151.0170    8.5962    0.0000 ca      1  GRA         0.000000
    661 C         153.1440    7.3681    0.0000 ca      1  GRA         0.000000
    662 C         152.4350    8.5962    0.0000 ca      1  GRA         0.000000
    663 C         154.5620    7.3681    0.0000 ca      1  GRA         0.000000
    664 C         155.2710    8.5962    0.0000 ca      1  GRA         0.000000
    665 C         157.3980    7.3681    0.0000 ca      1  GRA         0.000000
    666 C         156.6890    8.5962    0.0000 ca      1  GRA         0.000000
    667 C         158.8160    7.3681    0.0000 ca      1  GRA         0.000000
    668 C         159.5250    8.5962    0.0000 ca      1  GRA         0.000000
    669 C         161.6520    7.3681    0.0000 ca      1  GRA         0.000000
    670 C         160.9430    8.5962    0.0000 ca      1  GRA         0.000000
    671 C         163.0700    7.3681    0.0000 ca      1  GRA         0.000000
    672 C         163.7790    8.5962    0.0000 ca      1  GRA         0.000000
    673 C         165.9060    7.3681    0.0000 ca      1  GRA         0.000000
    674 C         165.1970    8.5962    0.0000 ca      1  GRA         0.000000
    675 C         167.3240    7.3681    0.0000 ca      1  GRA         0.000000
    676 C         168.0330    8.5962    0.0000 ca      1  GRA         0.000000
    677 C         170.1600    7.3681    0.0000 ca      1  GRA         0.000000
    678 C         169.4510    8.5962    0.0000 ca      1  GRA         0.000000
    679 C         171.5780    7.3681    0.0000 ca      1  GRA         0.000000
    680 C         172.2870    8.5962    0.0000 ca      1  GRA         0.000000
    681 C         174.4140    7.3681    0.0000 ca      1  GRA         0.000000
    682 C         173.7050    8.5962    0.0000 ca      1  GRA         0.000000
    683 C         175.8320    7.3681    0.0000 ca      1  GRA         0.000000
    684 C         176.5410    8.5962    0.0000 ca      1  GRA         0.000000
    685 C         178.6680    7.3681    0.0000 ca      1  GRA         0.000000
    686 C         177.9590    8.5962    0.0000 ca      1  GRA         0.000000
    687 C         180.0860    7.3681    0.0000 ca      1  GRA         0.000000
    688 C         180.7950    8.5962    0.0000 ca      1  GRA         0.000000
    689 C           0.0000    9.8242    0.0000 ca      1  GRA         0.000000
    690 C          -0.7090   11.0522    0.0000 ca      1  GRA         0.000000
    691 C           1.4180    9.8242    0.0000 ca      1  GRA         0.000000
    692 C           2.1270   11.0522    0.0000 ca      1  GRA         0.000000
    693 C           4.2540    9.8242    0.0000 ca      1  GRA         0.000000
    694 C           3.5450   11.0522    0.0000 ca      1  GRA         0.000000
    695 C           5.6720    9.8242    0.0000 ca      1  GRA         0.000000
    696 C           6.3810   11.0522    0.0000 ca      1  GRA         0.000000
    697 C           8.5080    9.8242    0.0000 ca      1  GRA         0.000000
    698 C           7.7990   11.0522    0.0000 ca      1  GRA         0.000000
    699 C           9.9260    9.8242    0.0000 ca      1  GRA         0.000000
    700 C          10.6350   11.0522    0.0000 ca      1  GRA         0.000000
    701 C          12.7620    9.8242    0.0000 ca      1  GRA         0.000000
    702 C          12.0530   11.0522    0.0000 ca      1  GRA         0.000000
    703 C          14.1800    9.8242    0.0000 ca      1  GRA         0.000000
    704 C          14.8890   11.0522    0.0000 ca      1  GRA         0.000000
    705 C          17.0160    9.8242    0.0000 ca      1  GRA         0.000000
    706 C          16.3070   11.0522    0.0000 ca      1  GRA         0.000000
    707 C          18.4340    9.8242    0.0000 ca      1  GRA         0.000000
    708 C          19.1430   11.0522    0.0000 ca      1  GRA         0.000000
    709 C          21.2700    9.8242    0.0000 ca      1  GRA         0.000000
    710 C          20.5610   11.0522    0.0000 ca      1  GRA         0.000000
    711 C          22.6880    9.8242    0.0000 ca      1  GRA         0.000000
    712 C          23.3970   11.0522    0.0000 ca      1  GRA         0.000000
    713 C          25.5240    9.8242    0.0000 ca      1  GRA         0.000000
    714 C          24.8150   11.0522    0.0000 ca      1  GRA         0.000000
    715 C          26.9420    9.8242    0.0000 ca      1  GRA         0.000000
    716 C          27.6510   11.0522    0.0000 ca      1  GRA         0.000000
    717 C          29.7780    9.8242    0.0000 ca      1  GRA         0.000000
    718 C          29.0690   11.0522    0.0000 ca      1  GRA         0.000000
    719 C          31.1960    9.8242    0.0000 ca      1  GRA         0.000000
    720 C          31.9050   11.0522    0.0000 ca      1  GRA         0.000000
    721 C          34.0320    9.8242    0.0000 ca      1  GRA         0.000000
    722 C          33.3230   11.0522    0.0000 ca      1  GRA         0.000000
    723 C          35.4500    9.8242    0.0000 ca      1  GRA         0.000000
    724 C          36.1590   11.0522    0.0000 ca      1  GRA         0.000000
    725 C          38.2860    9.8242    0.0000 ca      1  GRA         0.000000
    726 C          37.5770   11.0522    0.0000 ca      1  GRA         0.000000
    727 C          39.7040    9.8242    0.0000 ca      1  GRA         0.000000
    728 C          40.4130   11.0522    0.0000 ca      1  GRA         0.000000
    729 C          42.5400    9.8242    0.0000 ca      1  GRA         0.000000
    730 C          41.8310   11.0522    0.0000 ca      1  GRA         0.000000
    731 C          43.9580    9.8242    0.0000 ca      1  GRA         0.000000
    732 C          44.6670   11.0522    0.0000 ca      1  GRA         0.000000
    733 C          46.7940    9.8242    0.0000 ca      1  GRA         0.000000
    734 C          46.0850   11.0522    0.0000 ca      1  GRA         0.000000
    735 C          48.2120    9.8242    0.0000 ca      1  GRA         0.000000
    736 C          48.9210   11.0522    0.0000 ca      1  GRA         0.000000
    737 C          51.0480    9.8242    0.0000 ca      1  GRA         0.000000
    738 C          50.3390   11.0522    0.0000 ca      1  GRA         0.000000
    739 C          52.4660    9.8242    0.0000 ca      1  GRA         0.000000
    740 C          53.1750   11.0522    0.0000 ca      1  GRA         0.000000
    741 C          55.3020    9.8242    0.0000 ca      1  GRA         0.000000
    742 C          54.5930   11.0522    0.0000 ca      1  GRA         0.000000
    743 C          56.7200    9.8242    0.0000 ca      1  GRA         0.000000
    744 C          57.4290   11.0522    0.0000 ca      1  GRA         0.000000
    745 C          59.5560    9.8242    0.0000 ca      1  GRA         0.000000
    746 C          58.8470   11.0522    0.0000 ca      1  GRA         0.000000
    747 C          60.9740    9.8242    0.0000 ca      1  GRA         0.000000
    748 C          61.6830   11.0522    0.0000 ca      1  GRA         0.000000
    749 C          63.8100    9.8242    0.0000 ca      1  GRA         0.000000
    750 C          63.1010   11.0522    0.0000 ca      1  GRA         0.000000
    751 C          65.2280    9.8242    0.0000 ca      1  GRA         0.000000
    752 C          65.9370   11.0522    0.0000 ca      1  GRA         0.000000
    753 C          68.0640    9.8242    0.0000 ca      1  GRA         0.000000
    754 C          67.3550   11.0522    0.0000 ca      1  GRA         0.000000
    755 C          69.4820    9.8242    0.0000 ca      1  GRA         0.000000
    756 C          70.1910   11.0522    0.0000 ca      1  GRA         0.000000
    757 C          72.3180    9.8242    0.0000 ca      1  GRA         0.000000
    758 C          71.6090   11.0522    0.0000 ca      1  GRA         0.000000
    759 C          73.7360    9.8242    0.0000 ca      1  GRA         0.000000
    760 C          74.4450   11.0522    0.0000 ca      1  GRA         0.000000
    761 C          76.5720    9.8242    0.0000 ca      1  GRA         0.000000
    762 C          75.8630   11.0522    0.0000 ca      1  GRA         0.000000
    763 C          77.9900    9.8242    0.0000 ca      1  GRA         0.000000
    764 C          78.6990   11.0522    0.0000 ca      1  GRA         0.000000
    765 C          80.8260    9.8242    0.0000 ca      1  GRA         0.000000
    766 C          80.1170   11.0522    0.0000 ca      1  GRA         0.000000
    767 C          82.2440    9.8242    0.0000 ca      1  GRA         0.000000
    768 C          82.9530   11.0522    0.0000 ca      1  GRA         0.000000
    769 C          85.0800    9.8242    0.0000 ca      1  GRA         0.000000
    770 C          84.3710   11.0522    0.0000 ca      1  GRA         0.000000
    771 C          86.4980    9.8242    0.0000 ca      1  GRA         0.000000
    772 C          87.2070   11.0522    0.0000 ca      1  GRA         0.000000
    773 C          89.3340    9.8242    0.0000 ca      1  GRA         0.000000
    774 C          88.6250   11.0522    0.0000 ca      1  GRA         0.000000
    775 C          90.7520    9.8242    0.0000 ca      1  GRA         0.000000
    776 C          91.4610   11.0522    0.0000 ca      1  GRA         0.000000
    777 C          93.5880    9.8242    0.0000 ca      1  GRA         0.000000
    778 C          92.8790   11.0522    0.0000 ca      1  GRA         0.000000
    779 C          95.0060    9.8242    0.0000 ca      1  GRA         0.000000
    780 C          95.7150   11.0522    0.0000 ca      1  GRA         0.000000
    781 C          97.8420    9.8242    0.0000 ca      1  GRA         0.000000
    782 C          97.1330   11.0522    0.0000 ca      1  GRA         0.000000
    783 C          99.2600    9.8242    0.0000 ca      1  GRA         0.000000
    784 C          99.9690   11.0522    0.0000 ca      1  GRA         0.000000
    785 C         102.0960    9.8242    0.0000 ca      1  GRA         0.000000
    786 C         101.3870   11.0522    0.0000 ca      1  GRA         0.000000
    787 C         103.5140    9.8242    0.0000 ca      1  GRA         0.000000
    788 C         104.2230   11.0522    0.0000 ca      1  GRA         0.000000
    789 C         106.3500    9.8242    0.0000 ca      1  GRA         0.000000
    790 C         105.6410   11.0522    0.0000 ca      1  GRA         0.000000
    791 C         107.7680    9.8242    0.0000 ca      1  GRA         0.000000
    792 C         108.4770   11.0522    0.0000 ca      1  GRA         0.000000
    793 C         110.6040    9.8242    0.0000 ca      1  GRA         0.000000
    794 C         109.8950   11.0522    0.0000 ca      1  GRA         0.000000
    795 C         112.0220    9.8242    0.0000 ca      1  GRA         0.000000
    796 C         112.7310   11.0522    0.0000 ca      1  GRA         0.000000
    797 C         114.8580    9.8242    0.0000 ca      1  GRA         0.000000
    798 C         114.1490   11.0522    0.0000 ca      1  GRA         0.000000
    799 C         116.2760    9.8242    0.0000 ca      1  GRA         0.000000
    800 C         116.9850   11.0522    0.0000 ca      1  GRA         0.000000
    801 C         119.1120    9.8242    0.0000 ca      1  GRA         0.000000
    802 C         118.4030   11.0522    0.0000 ca      1  GRA         0.000000
    803 C         120.5300    9.8242    0.0000 ca      1  GRA         0.000000
    804 C         121.2390   11.0522    0.0000 ca      1  GRA         0.000000
    805 C         123.3660    9.8242    0.0000 ca      1  GRA         0.000000
    806 C         122.6570   11.0522    0.0000 ca      1  GRA         0.000000
    807 C         124.7840    9.8242    0.0000 ca      1  GRA         0.000000
    808 C         125.4930   11.0522    0.0000 ca      1  GRA         0.000000
    809 C         127.6200    9.8242    0.0000 ca      1  GRA         0.000000
    810 C         126.9110   11.0522    0.0000 ca      1  GRA         0.000000
    811 C         129.0380    9.8242    0.0000 ca      1  GRA         0.000000
    812 C         129.7470   11.0522    0.0000 ca      1  GRA         0.000000
    813 C         131.8740    9.8242    0.0000 ca      1  GRA         0.000000
    814 C         131.1650   11.0522    0.0000 ca      1  GRA         0.000000
    815 C         133.2920    9.8242    0.0000 ca      1  GRA         0.000000
    816 C         134.0010   11.0522    0.0000 ca      1  GRA         0.000000
    817 C         136.1280    9.8242    0.0000 ca      1  GRA         0.000000
    818 C         135.4190   11.0522    0.0000 ca      1  GRA         0.000000
    819 C         137.5460    9.8242    0.0000 ca      1  GRA         0.000000
    820 C         138.2550   11.0522    0.0000 ca      1  GRA         0.000000
    821 C         140.3820    9.8242    0.0000 ca      1  GRA         0.000000
    822 C         139.6730   11.0522    0.0000 ca      1  GRA         0.000000
    823 C         141.8000    9.8242    0.0000 ca      1  GRA         0.000000
    824 C         142.5090   11.0522    0.0000 ca      1  GRA         0.000000
    825 C         144.6360    9.8242    0.0000 ca      1  GRA         0.000000
    826 C         143.9270   11.0522    0.0000 ca      1  GRA         0.000000
    827 C         146.0540    9.8242    0.0000 ca      1  GRA         0.000000
    828 C         146.7630   11.0522    0.0000 ca      1  GRA         0.000000
    829 C         148.8900    9.8242    0.0000 ca      1  GRA         0.000000
    830 C         148.1810   11.0522    0.0000 ca      1  GRA         0.000000
    831 C         150.3080    9.8242    0.0000 ca      1  GRA         0.000000
    832 C         151.0170   11.0522    0.0000 ca      1  GRA         0.000000
    833 C         153.1440    9.8242    0.0000 ca      1  GRA         0.000000
    834 C         152.4350   11.0522    0.0000 ca      1  GRA         0.000000
    835 C         154.5620    9.8242    0.0000 ca      1  GRA         0.000000
    836 C         155.2710   11.0522    0.0000 ca      1  GRA         0.000000
    837 C         157.3980    9.8242    0.0000 ca      1  GRA         0.000000
    838 C         156.6890   11.0522    0.0000 ca      1  GRA         0.000000
    839 C         158.8160    9.8242    0.0000 ca      1  GRA         0.000000
    840 C         159.5250   11.0522    0.0000 ca      1  GRA         0.000000
    841 C         161.6520    9.8242    0.0000 ca      1  GRA         0.000000
    842 C         160.9430   11.0522    0.0000 ca      1  GRA         0.000000
    843 C         163.0700    9.8242    0.0000 ca      1  GRA         0.000000
    844 C         163.7790   11.0522    0.0000 ca      1  GRA         0.000000
    845 C         165.9060    9.8242    0.0000 ca      1  GRA         0.000000
    846 C         165.1970   11.0522    0.0000 ca      1  GRA         0.000000
    847 C         167.3240    9.8242    0.0000 ca      1  GRA         0.000000
    848 C         168.0330   11.0522    0.0000 ca      1  GRA         0.000000
    849 C         170.1600    9.8242    0.0000 ca      1  GRA         0.000000
    850 C         169.4510   11.0522    0.0000 ca      1  GRA         0.000000
    851 C         171.5780    9.8242    0.0000 ca      1  GRA         0.000000
    852 C         172.2870   11.0522    0.0000 ca      1  GRA         0.000000
    853 C         174.4140    9.8242    0.0000 ca      1  GRA         0.000000
    854 C         173.7050   11.0522    0.0000 ca      1  GRA         0.000000
    855 C         175.8320    9.8242    0.0000 ca      1  GRA         0.000000
    856 C         176.5410   11.0522    0.0000 ca      1  GRA         0.000000
    857 C         178.6680    9.8242    0.0000 ca      1  GRA         0.000000
    858 C         177.9590   11.0522    0.0000 ca      1  GRA         0.000000
    859 C         180.0860    9.8242    0.0000 ca      1  GRA         0.000000
    860 C         180.7950   11.0522    0.0000 ca      1  GRA         0.000000
    861 C           0.0000   12.2802    0.0000 ca      1  GRA         0.000000
    862 C          -0.7090   13.5083    0.0000 ca      1  GRA         0.000000
    863 C           1.4180   12.2802    0.0000 ca      1  GRA         0.000000
    864 C           2.1270   13.5083    0.0000 ca      1  GRA         0.000000
    865 C           4.2540   12.2802    0.0000 ca      1  GRA         0.000000
    866 C           3.5450   13.5083    0.0000 ca      1  GRA         0.000000
    867 C           5.6720   12.2802    0.0000 ca      1  GRA         0.000000
    868 C           6.3810   13.5083    0.0000 ca      1  GRA         0.000000
    869 C           8.5080   12.2802    0.0000 ca      1  GRA         0.000000
    870 C           7.7990   13.5083    0.0000 ca      1  GRA         0.000000
    871 C           9.9260   12.2802    0.0000 ca      1  GRA         0.000000
    872 C          10.6350   13.5083    0.0000 ca      1  GRA         0.000000
    873 C          12.7620   12.2802    0.0000 ca      1  GRA         0.000000
    874 C          12.0530   13.5083    0.0000 ca      1  GRA         0.000000
    875 C          14.1800   12.2802    0.0000 ca      1  GRA         0.000000
    876 C          14.8890   13.5083    0.0000 ca      1  GRA         0.000000
    877 C          17.0160   12.2802    0.0000 ca      1  GRA         0.000000
    878 C          16.3070   13.5083    0.0000 ca      1  GRA         0.000000
    879 C          18.4340   12.2802    0.0000 ca      1  GRA         0.000000
    880 C          19.1430   13.5083    0.0000 ca      1  GRA         0.000000
    881 C          21.2700   12.2802    0.0000 ca      1  GRA         0.000000
    882 C          20.5610   13.5083    0.0000 ca      1  GRA         0.000000
    883 C          22.6880   12.2802    0.0000 ca      1  GRA         0.000000
    884 C          23.3970   13.5083    0.0000 ca      1  GRA         0.000000
    885 C          25.5240   12.2802    0.0000 ca      1  GRA         0.000000
    886 C          24.8150   13.5083    0.0000 ca      1  GRA         0.000000
    887 C          26.9420   12.2802    0.0000 ca      1  GRA         0.000000
    888 C          27.6510   13.5083    0.0000 ca      1  GRA         0.000000
    889 C          29.7780   12.2802    0.0000 ca      1  GRA         0.000000
    890 C          29.0690   13.5083    0.0000 ca      1  GRA         0.000000
    891 C          31.1960   12.2802    0.0000 ca      1  GRA         0.000000
    892 C          31.9050   13.5083    0.0000 ca      1  GRA         0.000000
    893 C          34.0320   12.2802    0.0000 ca      1  GRA         0.000000
    894 C          33.3230   13.5083    0.0000 ca      1  GRA         0.000000
    895 C          35.4500   12.2802    0.0000 ca      1  GRA         0.000000
    896 C          36.1590   13.5083    0.0000 ca      1  GRA         0.000000
    897 C          38.2860   12.2802    0.0000 ca      1  GRA         0.000000
    898 C          37.5770   13.5083    0.0000 ca      1  GRA         0.000000
    899 C          39.7040   12.2802    0.0000 ca      1  GRA         0.000000
    900 C          40.4130   13.5083    0.0000 ca      1  GRA         0.000000
    901 C          42.5400   12.2802    0.0000 ca      1  GRA         0.000000
    902 C          41.8310   13.5083    0.0000 ca      1  GRA         0.000000
    903 C          43.9580   12.2802    0.0000 ca      1  GRA         0.000000
    904 C          44.6670   13.5083    0.0000 ca      1  GRA         0.000000
    905 C          46.7940   12.2802    0.0000 ca      1  GRA         0.000000
    906 C          46.0850   13.5083    0.0000 ca      1  GRA         0.000000
    907 C          48.2120   12.2802    0.0000 ca      1  GRA         0.000000
    908 C          48.9210   13.5083    0.0000 ca      1  GRA         0.000000
    909 C          51.0480   12.2802    0.0000 ca      1  GRA         0.000000
    910 C          50.3390   13.5083    0.0000 ca      1  GRA         0.000000
    911 C          52.4660   12.2802    0.0000 ca      1  GRA         0.000000
    912 C          53.1750   13.5083    0.0000 ca      1  GRA         0.000000
    913 C          55.3020   12.2802    0.0000 ca      1  GRA         0.000000
    914 C          54.5930   13.5083    0.0000 ca      1  GRA         0.000000
    915 C          56.7200   12.2802    0.0000 ca      1  GRA         0.000000
    916 C          57.4290   13.5083    0.0000 ca      1  GRA         0.000000
    917 C          59.5560   12.2802    0.0000 ca      1  GRA         0.000000
    918 C          58.8470   13.5083    0.0000 ca      1  GRA         0.000000
    919 C          60.9740   12.2802    0.0000 ca      1  GRA         0.000000
    920 C          61.6830   13.5083    0.0000 ca      1  GRA         0.000000
    921 C          63.8100   12.2802    0.0000 ca      1  GRA         0.000000
    922 C          63.1010   13.5083    0.0000 ca      1  GRA         0.000000
    923 C          65.2280   12.2802    0.0000 ca      1  GRA         0.000000
    924 C          65.9370   13.5083    0.0000 ca      1  GRA         0.000000
    925 C          68.0640   12.2802    0.0000 ca      1  GRA         0.000000
    926 C          67.3550   13.5083    0.0000 ca      1  GRA         0.000000
    927 C          69.4820   12.2802    0.0000 ca      1  GRA         0.000000
    928 C          70.1910   13.5083    0.0000 ca      1  GRA         0.000000
    929 C          72.3180   12.2802    0.0000 ca      1  GRA         0.000000
    930 C          71.6090   13.5083    0.0000 ca      1  GRA         0.000000
    931 C          73.7360   12.2802    0.0000 ca      1  GRA         0.000000
    932 C          74.4450   13.5083    0.0000 ca      1  GRA         0.000000
    933 C          76.5720   12.2802    0.0000 ca      1  GRA         0.000000
    934 C          75.8630   13.5083    0.0000 ca      1  GRA         0.000000
    935 C          77.9900   12.2802    0.0000 ca      1  GRA         0.000000
    936 C          78.6990   13.5083    0.0000 ca      1  GRA         0.000000
    937 C          80.8260   12.2802    0.0000 ca      1  GRA         0.000000
    938 C          80.1170   13.5083    0.0000 ca      1  GRA         0.000000
    939 C          82.2440   12.2802    0.0000 ca      1  GRA         0.000000
    940 C          82.9530   13.5083    0.0000 ca      1  GRA         0.000000
    941 C          85.0800   12.2802    0.0000 ca      1  GRA         0.000000
    942 C          84.3710   13.5083    0.0000 ca      1  GRA         0.000000
    943 C          86.4980   12.2802    0.0000 ca      1  GRA         0.000000
    944 C          87.2070   13.5083    0.0000 ca      1  GRA         0.000000
    945 C          89.3340   12.2802    0.0000 ca      1  GRA         0.000000
    946 C          88.6250   13.5083    0.0000 ca      1  GRA         0.000000
    947 C          90.7520   12.2802    0.0000 ca      1  GRA         0.000000
    948 C          91.4610   13.5083    0.0000 ca      1  GRA         0.000000
    949 C          93.5880   12.2802    0.0000 ca      1  GRA         0.000000
    950 C          92.8790   13.5083    0.0000 ca      1  GRA         0.000000
    951 C          95.0060   12.2802    0.0000 ca      1  GRA         0.000000
    952 C          95.7150   13.5083    0.0000 ca      1  GRA         0.000000
    953 C          97.8420   12.2802    0.0000 ca      1  GRA         0.000000
    954 C          97.1330   13.5083    0.0000 ca      1  GRA         0.000000
    955 C          99.2600   12.2802    0.0000 ca      1  GRA         0.000000
    956 C          99.9690   13.5083    0.0000 ca      1  GRA         0.000000
    957 C         102.0960   12.2802    0.0000 ca      1  GRA         0.000000
    958 C         101.3870   13.5083    0.0000 ca      1  GRA         0.000000
    959 C         103.5140   12.2802    0.0000 ca      1  GRA         0.000000
    960 C         104.2230   13.5083    0.0000 ca      1  GRA         0.000000
    961 C         106.3500   12.2802    0.0000 ca      1  GRA         0.000000
    962 C         105.6410   13.5083    0.0000 ca      1  GRA         0.000000
    963 C         107.7680   12.2802    0.0000 ca      1  GRA         0.000000
    964 C         108.4770   13.5083    0.0000 ca      1  GRA         0.000000
    965 C         110.6040   12.2802    0.0000 ca      1  GRA         0.000000
    966 C         109.8950   13.5083    0.0000 ca      1  GRA         0.000000
    967 C         112.0220   12.2802    0.0000 ca      1  GRA         0.000000
    968 C         112.7310   13.5083    0.0000 ca      1  GRA         0.000000
    969 C         114.8580   12.2802    0.0000 ca      1  GRA         0.000000
    970 C         114.1490   13.5083    0.0000 ca      1  GRA         0.000000
    971 C         116.2760   12.2802    0.0000 ca      1  GRA         0.000000
    972 C         116.9850   13.5083    0.0000 ca      1  GRA         0.000000
    973 C         119.1120   12.2802    0.0000 ca      1  GRA         0.000000
    974 C         118.4030   13.5083    0.0000 ca      1  GRA         0.000000
    975 C         120.5300   12.2802    0.0000 ca      1  GRA         0.000000
    976 C         121.2390   13.5083    0.0000 ca      1  GRA         0.000000
    977 C         123.3660   12.2802    0.0000 ca      1  GRA         0.000000
    978 C         122.6570   13.5083    0.0000 ca      1  GRA         0.000000
    979 C         124.7840   12.2802    0.0000 ca      1  GRA         0.000000
    980 C         125.4930   13.5083    0.0000 ca      1  GRA         0.000000
    981 C         127.6200   12.2802    0.0000 ca      1  GRA         0.000000
    982 C         126.9110   13.5083    0.0000 ca      1  GRA         0.000000
    983 C         129.0380   12.2802    0.0000 ca      1  GRA         0.000000
    984 C         129.7470   13.5083    0.0000 ca      1  GRA         0.000000
    985 C         131.8740   12.2802    0.0000 ca      1  GRA         0.000000
    986 C         131.1650   13.5083    0.0000 ca      1  GRA         0.000000
    987 C         133.2920   12.2802    0.0000 ca      1  GRA         0.000000
    988 C         134.0010   13.5083    0.0000 ca      1  GRA         0.000000
    989 C         136.1280   12.2802    0.0000 ca      1  GRA         0.000000
    990 C         135.4190   13.5083    0.0000 ca      1  GRA         0.000000
    991 C         137.5460   12.2802    0.0000 ca      1  GRA         0.000000
    992 C         138.2550   13.5083    0.0000 ca      1  GRA         0.000000
    993 C         140.3820   12.2802    0.0000 ca      1  GRA         0.000000
    994 C         139.6730   13.5083    0.0000 ca      1  GRA         0.000000
    995 C         141.8000   12.2802    0.0000 ca      1  GRA         0.000000
    996 C         142.5090   13.5083    0.0000 ca      1  GRA         0.000000
    997 C         144.6360   12.2802    0.0000 ca      1  GRA         0.000000
    998 C         143.9270   13.5083    0.0000 ca      1  GRA         0.000000
    999 C         146.0540   12.2802    0.0000 ca      1  GRA         0.000000
   1000 C         146.7630   13.5083    0.0000 ca      1  GRA         0.000000
   1001 C         148.8900   12.2802    0.0000 ca      1  GRA         0.000000
   1002 C         148.1810   13.5083    0.0000 ca      1  GRA         0.000000
   1003 C         150.3080   12.2802    0.0000 ca      1  GRA         0.000000
   1004 C         151.0170   13.5083    0.0000 ca      1  GRA         0.000000
   1005 C         153.1440   12.2802    0.0000 ca      1  GRA         0.000000
   1006 C         152.4350   13.5083    0.0000 ca      1  GRA         0.000000
   1007 C         154.5620   12.2802    0.0000 ca      1  GRA         0.000000
   1008 C         155.2710   13.5083    0.0000 ca      1  GRA         0.000000
   1009 C         157.3980   12.2802    0.0000 ca      1  GRA         0.000000
   1010 C         156.6890   13.5083    0.0000 ca      1  GRA         0.000000
   1011 C         158.8160   12.2802    0.0000 ca      1  GRA         0.000000
   1012 C         159.5250   13.5083    0.0000 ca      1  GRA         0.000000
   1013 C         161.6520   12.2802    0.0000 ca      1  GRA         0.000000
   1014 C         160.9430   13.5083    0.0000 ca      1  GRA         0.000000
   1015 C         163.0700   12.2802    0.0000 ca      1  GRA         0.000000
   1016 C         163.7790   13.5083    0.0000 ca      1  GRA         0.000000
   1017 C         165.9060   12.2802    0.0000 ca      1  GRA         0.000000
   1018 C         165.1970   13.5083    0.0000 ca      1  GRA         0.000000
   1019 C         167.3240   12.2802    0.0000 ca      1  GRA         0.000000
   1020 C         168.0330   13.5083    0.0000 ca      1  GRA         0.000000
   1021 C         170.1600   12.2802    0.0000 ca      1  GRA         0.000000
   1022 C         169.4510   13.5083    0.0000 ca      1  GRA         0.000000
   1023 C         171.5780   12.2802    0.0000 ca      1  GRA         0.000000
   1024 C         172.2870   13.5083    0.0000 ca      1  GRA         0.000000
   1025 C         174.4140   12.2802    0.0000 ca      1  GRA         0.000000
   1026 C         173.7050   13.5083    0.0000 ca      1  GRA         0.000000
   1027 C         175.8320   12.2802    0.0000 ca      1  GRA         0.000000
   1028 C         176.5410   13.5083    0.0000 ca      1  GRA         0.000000
   1029 C         178.6680   12.2802    0.0000 ca      1  GRA         0.000000
   1030 C         177.9590   13.5083    0.0000 ca      1  GRA         0.000000
   1031 C         180.0860   12.2802    0.0000 ca      1  GRA         0.000000
   1032 C         180.7950   13.5083    0.0000 ca      1  GRA         0.000000
   1033 C           0.0000   14.7363    0.0000 ca      1  GRA         0.000000
   1034 C          -0.7090   15.9643    0.0000 ca      1  GRA         0.000000
   1035 C           1.4180   14.7363    0.0000 ca      1  GRA         0.000000
   1036 C           2.1270   15.9643    0.0000 ca      1  GRA         0.000000
   1037 C           4.2540   14.7363    0.0000 ca      1  GRA         0.000000
   1038 C           3.5450   15.9643    0.0000 ca      1  GRA         0.000000
   1039 C           5.6720   14.7363    0.0000 ca      1  GRA         0.000000
   1040 C           6.3810   15.9643    0.0000 ca      1  GRA         0.000000
   1041 C           8.5080   14.7363    0.0000 ca      1  GRA         0.000000
   1042 C           7.7990   15.9643    0.0000 ca      1  GRA         0.000000
   1043 C           9.9260   14.7363    0.0000 ca      1  GRA         0.000000
   1044 C          10.6350   15.9643    0.0000 ca      1  GRA         0.000000
   1045 C          12.7620   14.7363    0.0000 ca      1  GRA         0.000000
   1046 C          12.0530   15.9643    0.0000 ca      1  GRA         0.000000
   1047 C          14.1800   14.7363    0.0000 ca      1  GRA         0.000000
   1048 C          14.8890   15.9643    0.0000 ca      1  GRA         0.000000
   1049 C          17.0160   14.7363    0.0000 ca      1  GRA         0.000000
   1050 C          16.3070   15.9643    0.0000 ca      1  GRA         0.000000
   1051 C          18.4340   14.7363    0.0000 ca      1  GRA         0.000000
   1052 C          19.1430   15.9643    0.0000 ca      1  GRA         0.000000
   1053 C          21.2700   14.7363    0.0000 ca      1  GRA         0.000000
   1054 C          20.5610   15.9643    0.0000 ca      1  GRA         0.000000
   1055 C          22.6880   14.7363    0.0000 ca      1  GRA         0.000000
   1056 C          23.3970   15.9643    0.0000 ca      1  GRA         0.000000
   1057 C          25.5240   14.7363    0.0000 ca      1  GRA         0.000000
   1058 C          24.8150   15.9643    0.0000 ca      1  GRA         0.000000
   1059 C          26.9420   14.7363    0.0000 ca      1  GRA         0.000000
   1060 C          27.6510   15.9643    0.0000 ca      1  GRA         0.000000
   1061 C          29.7780   14.7363    0.0000 ca      1  GRA         0.000000
   1062 C          29.0690   15.9643    0.0000 ca      1  GRA         0.000000
   1063 C          31.1960   14.7363    0.0000 ca      1  GRA         0.000000
   1064 C          31.9050   15.9643    0.0000 ca      1  GRA         0.000000
   1065 C          34.0320   14.7363    0.0000 ca      1  GRA         0.000000
   1066 C          33.3230   15.9643    0.0000 ca      1  GRA         0.000000
   1067 C          35.4500   14.7363    0.0000 ca      1  GRA         0.000000
   1068 C          36.1590   15.9643    0.0000 ca      1  GRA         0.000000
   1069 C          38.2860   14.7363    0.0000 ca      1  GRA         0.000000
   1070 C          37.5770   15.9643    0.0000 ca      1  GRA         0.000000
   1071 C          39.7040   14.7363    0.0000 ca      1  GRA         0.000000
   1072 C          40.4130   15.9643    0.0000 ca      1  GRA         0.000000
   1073 C          42.5400   14.7363    0.0000 ca      1  GRA         0.000000
   1074 C          41.8310   15.9643    0.0000 ca      1  GRA         0.000000
   1075 C          43.9580   14.7363    0.0000 ca      1  GRA         0.000000
   1076 C          44.6670   15.9643    0.0000 ca      1  GRA         0.000000
   1077 C          46.7940   14.7363    0.0000 ca      1  GRA         0.000000
   1078 C          46.0850   15.9643    0.0000 ca      1  GRA         0.000000
   1079 C          48.2120   14.7363    0.0000 ca      1  GRA         0.000000
   1080 C          48.9210   15.9643    0.0000 ca      1  GRA         0.000000
   1081 C          51.0480   14.7363    0.0000 ca      1  GRA         0.000000
   1082 C          50.3390   15.9643    0.0000 ca      1  GRA         0.000000
   1083 C          52.4660   14.7363    0.0000 ca      1  GRA         0.000000
   1084 C          53.1750   15.9643    0.0000 ca      1  GRA         0.000000
   1085 C          55.3020   14.7363    0.0000 ca      1  GRA         0.000000
   1086 C          54.5930   15.9643    0.0000 ca      1  GRA         0.000000
   1087 C          56.7200   14.7363    0.0000 ca      1  GRA         0.000000
   1088 C          57.4290   15.9643    0.0000 ca      1  GRA         0.000000
   1089 C          59.5560   14.7363    0.0000 ca      1  GRA         0.000000
   1090 C          58.8470   15.9643    0.0000 ca      1  GRA         0.000000
   1091 C          60.9740   14.7363    0.0000 ca      1  GRA         0.000000
   1092 C          61.6830   15.9643    0.0000 ca      1  GRA         0.000000
   1093 C          63.8100   14.7363    0.0000 ca      1  GRA         0.000000
   1094 C          63.1010   15.9643    0.0000 ca      1  GRA         0.000000
   1095 C          65.2280   14.7363    0.0000 ca      1  GRA         0.000000
   1096 C          65.9370   15.9643    0.0000 ca      1  GRA         0.000000
   1097 C          68.0640   14.7363    0.0000 ca      1  GRA         0.000000
   1098 C          67.3550   15.9643    0.0000 ca      1  GRA         0.000000
   1099 C          69.4820   14.7363    0.0000 ca      1  GRA         0.000000
   1100 C          70.1910   15.9643    0.0000 ca      1  GRA         0.000000
   1101 C          72.3180   14.7363    0.0000 ca      1  GRA         0.000000
   1102 C          71.6090   15.9643    0.0000 ca      1  GRA         0.000000
   1103 C          73.7360   14.7363    0.0000 ca      1  GRA         0.000000
   1104 C          74.4450   15.9643    0.0000 ca      1  GRA         0.000000
   1105 C          76.5720   14.7363    0.0000 ca      1  GRA         0.000000
   1106 C          75.8630   15.9643    0.0000 ca      1  GRA         0.000000
   1107 C          77.9900   14.7363    0.0000 ca      1  GRA         0.000000
   1108 C          78.6990   15.9643    0.0000 ca      1  GRA         0.000000
   1109 C          80.8260   14.7363    0.0000 ca      1  GRA         0.000000
   1110 C          80.1170   15.9643    0.0000 ca      1  GRA         0.000000
   1111 C          82.2440   14.7363    0.0000 ca      1  GRA         0.000000
   1112 C          82.9530   15.9643    0.0000 ca      1  GRA         0.000000
   1113 C          85.0800   14.7363    0.0000 ca      1  GRA         0.000000
   1114 C          84.3710   15.9643    0.0000 ca      1  GRA         0.000000
   1115 C          86.4980   14.7363    0.0000 ca      1  GRA         0.000000
   1116 C          87.2070   15.9643    0.0000 ca      1  GRA         0.000000
   1117 C          89.3340   14.7363    0.0000 ca      1  GRA         0.000000
   1118 C          88.6250   15.9643    0.0000 ca      1  GRA         0.000000
   1119 C          90.7520   14.7363    0.0000 ca      1  GRA         0.000000
   1120 C          91.4610   15.9643    0.0000 ca      1  GRA         0.000000
   1121 C          93.5880   14.7363    0.0000 ca      1  GRA         0.000000
   1122 C          92.8790   15.9643    0.0000 ca      1  GRA         0.000000
   1123 C          95.0060   14.7363    0.0000 ca      1  GRA         0.000000
   1124 C          95.7150   15.9643    0.0000 ca      1  GRA         0.000000
   1125 C          97.8420   14.7363    0.0000 ca      1  GRA         0.000000
   1126 C          97.1330   15.9643    0.0000 ca      1  GRA         0.000000
   1127 C          99.2600   14.7363    0.0000 ca      1  GRA         0.000000
   1128 C          99.9690   15.9643    0.0000 ca      1  GRA         0.000000
   1129 C         102.0960   14.7363    0.0000 ca      1  GRA         0.000000
   1130 C         101.3870   15.9643    0.0000 ca      1  GRA         0.000000
   1131 C         103.5140   14.7363    0.0000 ca      1  GRA         0.000000
   1132 C         104.2230   15.9643    0.0000 ca      1  GRA         0.000000
   1133 C         106.3500   14.7363    0.0000 ca      1  GRA         0.000000
   1134 C         105.6410   15.9643    0.0000 ca      1  GRA         0.000000
   1135 C         107.7680   14.7363    0.0000 ca      1  GRA         0.000000
   1136 C         108.4770   15.9643    0.0000 ca      1  GRA         0.000000
   1137 C         110.6040   14.7363    0.0000 ca      1  GRA         0.000000
   1138 C         109.8950   15.9643    0.0000 ca      1  GRA         0.000000
   1139 C         112.0220   14.7363    0.0000 ca      1  GRA         0.000000
   1140 C         112.7310   15.9643    0.0000 ca      1  GRA         0.000000
   1141 C         114.8580   14.7363    0.0000 ca      1  GRA         0.000000
   1142 C         114.1490   15.9643    0.0000 ca      1  GRA         0.000000
   1143 C         116.2760   14.7363    0.0000 ca      1  GRA         0.000000
   1144 C         116.9850   15.9643    0.0000 ca      1  GRA         0.000000
   1145 C         119.1120   14.7363    0.0000 ca      1  GRA         0.000000
   1146 C         118.4030   15.9643    0.0000 ca      1  GRA         0.000000
   1147 C         120.5300   14.7363    0.0000 ca      1  GRA         0.000000
   1148 C         121.2390   15.9643    0.0000 ca      1  GRA         0.000000
   1149 C         123.3660   14.7363    0.0000 ca      1  GRA         0.000000
   1150 C         122.6570   15.9643    0.0000 ca      1  GRA         0.000000
   1151 C         124.7840   14.7363    0.0000 ca      1  GRA         0.000000
   1152 C         125.4930   15.9643    0.0000 ca      1  GRA         0.000000
   1153 C         127.6200   14.7363    0.0000 ca      1  GRA         0.000000
   1154 C         126.9110   15.9643    0.0000 ca      1  GRA         0.000000
   1155 C         129.0380   14.7363    0.0000 ca      1  GRA         0.000000
   1156 C         129.7470   15.9643    0.0000 ca      1  GRA         0.000000
   1157 C         131.8740   14.7363    0.0000 ca      1  GRA         0.000000
   1158 C         131.1650   15.9643    0.0000 ca      1  GRA         0.000000
   1159 C         133.2920   14.7363    0.0000 ca      1  GRA         0.000000
   1160 C         134.0010   15.9643    0.0000 ca      1  GRA         0.000000
   1161 C         136.1280   14.7363    0.0000 ca      1  GRA         0.000000
   1162 C         135.4190   15.9643    0.0000 ca      1  GRA         0.000000
   1163 C         137.5460   14.7363    0.0000 ca      1  GRA         0.000000
   1164 C         138.2550   15.9643    0.0000 ca      1  GRA         0.000000
   1165 C         140.3820   14.7363    0.0000 ca      1  GRA         0.000000
   1166 C         139.6730   15.9643    0.0000 ca      1  GRA         0.000000
   1167 C         141.8000   14.7363    0.0000 ca      1  GRA         0.000000
   1168 C         142.5090   15.9643    0.0000 ca      1  GRA         0.000000
   1169 C         144.6360   14.7363    0.0000 ca      1  GRA         0.000000
   1170 C         143.9270   15.9643    0.0000 ca      1  GRA         0.000000
   1171 C         146.0540   14.7363    0.0000 ca      1  GRA         0.000000
   1172 C         146.7630   15.9643    0.0000 ca      1  GRA         0.000000
   1173 C         148.8900   14.7363    0.0000 ca      1  GRA         0.000000
   1174 C         148.1810   15.9643    0.0000 ca      1  GRA         0.000000
   1175 C         150.3080   14.7363    0.0000 ca      1  GRA         0.000000
   1176 C         151.0170   15.9643    0.0000 ca      1  GRA         0.000000
   1177 C         153.1440   14.7363    0.0000 ca      1  GRA         0.000000
   1178 C         152.4350   15.9643    0.0000 ca      1  GRA         0.000000
   1179 C         154.5620   14.7363    0.0000 ca      1  GRA         0.000000
   1180 C         155.2710   15.9643    0.0000 ca      1  GRA         0.000000
   1181 C         157.3980   14.7363    0.0000 ca      1  GRA         0.000000
   1182 C         156.6890   15.9643    0.0000 ca      1  GRA         0.000000
   1183 C         158.8160   14.7363    0.0000 ca      1  GRA         0.000000
   1184 C         159.5250   15.9643    0.0000 ca      1  GRA         0.000000
   1185 C         161.6520   14.7363    0.0000 ca      1  GRA         0.000000
   1186 C         160.9430   15.9643    0.0000 ca      1  GRA         0.000000
   1187 C         163.0700   14.7363    0.0000 ca      1  GRA         0.000000
   1188 C         163.7790   15.9643    0.0000 ca      1  GRA         0.000000
   1189 C         165.9060   14.7363    0.0000 ca      1  GRA         0.000000
   1190 C         165.1970   15.9643    0.0000 ca      1  GRA         0.000000
   1191 C         167.3240   14.7363    0.0000 ca      1  GRA         0.000000
   1192 C         168.0330   15.9643    0.0000 ca      1  GRA         0.000000
   1193 C         170.1600   14.7363    0.0000 ca      1  GRA         0.000000
   1194 C         169.4510   15.9643    0.0000 ca      1  GRA         0.000000
   1195 C         171.5780   14.7363    0.0000 ca      1  GRA         0.000000
   1196 C         172.2870   15.9643    0.0000 ca      1  GRA         0.000000
   1197 C         174.4140   14.7363    0.0000 ca      1  GRA         0.000000
   1198 C         173.7050   15.9643    0.0000 ca      1  GRA         0.000000
   1199 C         175.8320   14.7363    0.0000 ca      1  GRA         0.000000
   1200 C         176.5410   15.9643    0.0000 ca      1  GRA         0.000000
   1201 C         178.6680   14.7363    0.0000 ca      1  GRA         0.000000
   1202 C         177.9590   15.9643    0.0000 ca      1  GRA         0.000000
   1203 C         180.0860   14.7363    0.0000 ca      1  GRA         0.000000
   1204 C         180.7950   15.9643    0.0000 ca      1  GRA         0.000000
   1205 C           0.0000   17.1923    0.0000 ca      1  GRA         0.000000
   1206 C          -0.7090   18.4204    0.0000 ca      1  GRA         0.000000
   1207 C           1.4180   17.1923    0.0000 ca      1  GRA         0.000000
   1208 C           2.1270   18.4204    0.0000 ca      1  GRA         0.000000
   1209 C           4.2540   17.1923    0.0000 ca      1  GRA         0.000000
   1210 C           3.5450   18.4204    0.0000 ca      1  GRA         0.000000
   1211 C           5.6720   17.1923    0.0000 ca      1  GRA         0.000000
   1212 C           6.3810   18.4204    0.0000 ca      1  GRA         0.000000
   1213 C           8.5080   17.1923    0.0000 ca      1  GRA         0.000000
   1214 C           7.7990   18.4204    0.0000 ca      1  GRA         0.000000
   1215 C           9.9260   17.1923    0.0000 ca      1  GRA         0.000000
   1216 C          10.6350   18.4204    0.0000 ca      1  GRA         0.000000
   1217 C          12.7620   17.1923    0.0000 ca      1  GRA         0.000000
   1218 C          12.0530   18.4204    0.0000 ca      1  GRA         0.000000
   1219 C          14.1800   17.1923    0.0000 ca      1  GRA         0.000000
   1220 C          14.8890   18.4204    0.0000 ca      1  GRA         0.000000
   1221 C          17.0160   17.1923    0.0000 ca      1  GRA         0.000000
   1222 C          16.3070   18.4204    0.0000 ca      1  GRA         0.000000
   1223 C          18.4340   17.1923    0.0000 ca      1  GRA         0.000000
   1224 C          19.1430   18.4204    0.0000 ca      1  GRA         0.000000
   1225 C          21.2700   17.1923    0.0000 ca      1  GRA         0.000000
   1226 C          20.5610   18.4204    0.0000 ca      1  GRA         0.000000
   1227 C          22.6880   17.1923    0.0000 ca      1  GRA         0.000000
   1228 C          23.3970   18.4204    0.0000 ca      1  GRA         0.000000
   1229 C          25.5240   17.1923    0.0000 ca      1  GRA         0.000000
   1230 C          24.8150   18.4204    0.0000 ca      1  GRA         0.000000
   1231 C          26.9420   17.1923    0.0000 ca      1  GRA         0.000000
   1232 C          27.6510   18.4204    0.0000 ca      1  GRA         0.000000
   1233 C          29.7780   17.1923    0.0000 ca      1  GRA         0.000000
   1234 C          29.0690   18.4204    0.0000 ca      1  GRA         0.000000
   1235 C          31.1960   17.1923    0.0000 ca      1  GRA         0.000000
   1236 C          31.9050   18.4204    0.0000 ca      1  GRA         0.000000
   1237 C          34.0320   17.1923    0.0000 ca      1  GRA         0.000000
   1238 C          33.3230   18.4204    0.0000 ca      1  GRA         0.000000
   1239 C          35.4500   17.1923    0.0000 ca      1  GRA         0.000000
   1240 C          36.1590   18.4204    0.0000 ca      1  GRA         0.000000
   1241 C          38.2860   17.1923    0.0000 ca      1  GRA         0.000000
   1242 C          37.5770   18.4204    0.0000 ca      1  GRA         0.000000
   1243 C          39.7040   17.1923    0.0000 ca      1  GRA         0.000000
   1244 C          40.4130   18.4204    0.0000 ca      1  GRA         0.000000
   1245 C          42.5400   17.1923    0.0000 ca      1  GRA         0.000000
   1246 C          41.8310   18.4204    0.0000 ca      1  GRA         0.000000
   1247 C          43.9580   17.1923    0.0000 ca      1  GRA         0.000000
   1248 C          44.6670   18.4204    0.0000 ca      1  GRA         0.000000
   1249 C          46.7940   17.1923    0.0000 ca      1  GRA         0.000000
   1250 C          46.0850   18.4204    0.0000 ca      1  GRA         0.000000
   1251 C          48.2120   17.1923    0.0000 ca      1  GRA         0.000000
   1252 C          48.9210   18.4204    0.0000 ca      1  GRA         0.000000
   1253 C          51.0480   17.1923    0.0000 ca      1  GRA         0.000000
   1254 C          50.3390   18.4204    0.0000 ca      1  GRA         0.000000
   1255 C          52.4660   17.1923    0.0000 ca      1  GRA         0.000000
   1256 C          53.1750   18.4204    0.0000 ca      1  GRA         0.000000
   1257 C          55.3020   17.1923    0.0000 ca      1  GRA         0.000000
   1258 C          54.5930   18.4204    0.0000 ca      1  GRA         0.000000
   1259 C          56.7200   17.1923    0.0000 ca      1  GRA         0.000000
   1260 C          57.4290   18.4204    0.0000 ca      1  GRA         0.000000
   1261 C          59.5560   17.1923    0.0000 ca      1  GRA         0.000000
   1262 C          58.8470   18.4204    0.0000 ca      1  GRA         0.000000
   1263 C          60.9740   17.1923    0.0000 ca      1  GRA         0.000000
   1264 C          61.6830   18.4204    0.0000 ca      1  GRA         0.000000
   1265 C          63.8100   17.1923    0.0000 ca      1  GRA         0.000000
   1266 C          63.1010   18.4204    0.0000 ca      1  GRA         0.000000
   1267 C          65.2280   17.1923    0.0000 ca      1  GRA         0.000000
   1268 C          65.9370   18.4204    0.0000 ca      1  GRA         0.000000
   1269 C          68.0640   17.1923    0.0000 ca      1  GRA         0.000000
   1270 C          67.3550   18.4204    0.0000 ca      1  GRA         0.000000
   1271 C          69.4820   17.1923    0.0000 ca      1  GRA         0.000000
   1272 C          70.1910   18.4204    0.0000 ca      1  GRA         0.000000
   1273 C          72.3180   17.1923    0.0000 ca      1  GRA         0.000000
   1274 C          71.6090   18.4204    0.0000 ca      1  GRA         0.000000
   1275 C          73.7360   17.1923    0.0000 ca      1  GRA         0.000000
   1276 C          74.4450   18.4204    0.0000 ca      1  GRA         0.000000
   1277 C          76.5720   17.1923    0.0000 ca      1  GRA         0.000000
   1278 C          75.8630   18.4204    0.0000 ca      1  GRA         0.000000
   1279 C          77.9900   17.1923    0.0000 ca      1  GRA         0.000000
   1280 C          78.6990   18.4204    0.0000 ca      1  GRA         0.000000
   1281 C          80.8260   17.1923    0.0000 ca      1  GRA         0.000000
   1282 C          80.1170   18.4204    0.0000 ca      1  GRA         0.000000
   1283 C          82.2440   17.1923    0.0000 ca      1  GRA         0.000000
   1284 C          82.9530   18.4204    0.0000 ca      1  GRA         0.000000
   1285 C          85.0800   17.1923    0.0000 ca      1  GRA         0.000000
   1286 C          84.3710   18.4204    0.0000 ca      1  GRA         0.000000
   1287 C          86.4980   17.1923    0.0000 ca      1  GRA         0.000000
   1288 C          87.2070   18.4204    0.0000 ca      1  GRA         0.000000
   1289 C          89.3340   17.1923    0.0000 ca      1  GRA         0.000000
   1290 C          88.6250   18.4204    0.0000 ca      1  GRA         0.000000
   1291 C          90.7520   17.1923    0.0000 ca      1  GRA         0.000000
   1292 C          91.4610   18.4204    0.0000 ca      1  GRA         0.000000
   1293 C          93.5880   17.1923    0.0000 ca      1  GRA         0.000000
   1294 C          92.8790   18.4204    0.0000 ca      1  GRA         0.000000
   1295 C          95.0060   17.1923    0.0000 ca      1  GRA         0.000000
   1296 C          95.7150   18.4204    0.0000 ca      1  GRA         0.000000
   1297 C          97.8420   17.1923    0.0000 ca      1  GRA         0.000000
   1298 C          97.1330   18.4204    0.0000 ca      1  GRA         0.000000
   1299 C          99.2600   17.1923    0.0000 ca      1  GRA         0.000000
   1300 C          99.9690   18.4204    0.0000 ca      1  GRA         0.000000
   1301 C         102.0960   17.1923    0.0000 ca      1  GRA         0.000000
   1302 C         101.3870   18.4204    0.0000 ca      1  GRA         0.000000
   1303 C         103.5140   17.1923    0.0000 ca      1  GRA         0.000000
   1304 C         104.2230   18.4204    0.0000 ca      1  GRA         0.000000
   1305 C         106.3500   17.1923    0.0000 ca      1  GRA         0.000000
   1306 C         105.6410   18.4204    0.0000 ca      1  GRA         0.000000
   1307 C         107.7680   17.1923    0.0000 ca      1  GRA         0.000000
   1308 C         108.4770   18.4204    0.0000 ca      1  GRA         0.000000
   1309 C         110.6040   17.1923    0.0000 ca      1  GRA         0.000000
   1310 C         109.8950   18.4204    0.0000 ca      1  GRA         0.000000
   1311 C         112.0220   17.1923    0.0000 ca      1  GRA         0.000000
   1312 C         112.7310   18.4204    0.0000 ca      1  GRA         0.000000
   1313 C         114.8580   17.1923    0.0000 ca      1  GRA         0.000000
   1314 C         114.1490   18.4204    0.0000 ca      1  GRA         0.000000
   1315 C         116.2760   17.1923    0.0000 ca      1  GRA         0.000000
   1316 C         116.9850   18.4204    0.0000 ca      1  GRA         0.000000
   1317 C         119.1120   17.1923    0.0000 ca      1  GRA         0.000000
   1318 C         118.4030   18.4204    0.0000 ca      1  GRA         0.000000
   1319 C         120.5300   17.1923    0.0000 ca      1  GRA         0.000000
   1320 C         121.2390   18.4204    0.0000 ca      1  GRA         0.000000
   1321 C         123.3660   17.1923    0.0000 ca      1  GRA         0.000000
   1322 C         122.6570   18.4204    0.0000 ca      1  GRA         0.000000
   1323 C         124.7840   17.1923    0.0000 ca      1  GRA         0.000000
   1324 C         125.4930   18.4204    0.0000 ca      1  GRA         0.000000
   1325 C         127.6200   17.1923    0.0000 ca      1  GRA         0.000000
   1326 C         126.9110   18.4204    0.0000 ca      1  GRA         0.000000
   1327 C         129.0380   17.1923    0.0000 ca      1  GRA         0.000000
   1328 C         129.7470   18.4204    0.0000 ca      1  GRA         0.000000
   1329 C         131.8740   17.1923    0.0000 ca      1  GRA         0.000000
   1330 C         131.1650   18.4204    0.0000 ca      1  GRA         0.000000
   1331 C         133.2920   17.1923    0.0000 ca      1  GRA         0.000000
   1332 C         134.0010   18.4204    0.0000 ca      1  GRA         0.000000
   1333 C         136.1280   17.1923    0.0000 ca      1  GRA         0.000000
   1334 C         135.4190   18.4204    0.0000 ca      1  GRA         0.000000
   1335 C         137.5460   17.1923    0.0000 ca      1  GRA         0.000000
   1336 C         138.2550   18.4204    0.0000 ca      1  GRA         0.000000
   1337 C         140.3820   17.1923    0.0000 ca      1  GRA         0.000000
   1338 C         139.6730   18.4204    0.0000 ca      1  GRA         0.000000
   1339 C         141.8000   17.1923    0.0000 ca      1  GRA         0.000000
   1340 C         142.5090   18.4204    0.0000 ca      1  GRA         0.000000
   1341 C         144.6360   17.1923    0.0000 ca      1  GRA         0.000000
   1342 C         143.9270   18.4204    0.0000 ca      1  GRA         0.000000
   1343 C         146.0540   17.1923    0.0000 ca      1  GRA         0.000000
   1344 C         146.7630   18.4204    0.0000 ca      1  GRA         0.000000
   1345 C         148.8900   17.1923    0.0000 ca      1  GRA         0.000000
   1346 C         148.1810   18.4204    0.0000 ca      1  GRA         0.000000
   1347 C         150.3080   17.1923    0.0000 ca      1  GRA         0.000000
   1348 C         151.0170   18.4204    0.0000 ca      1  GRA         0.000000
   1349 C         153.1440   17.1923    0.0000 ca      1  GRA         0.000000
   1350 C         152.4350   18.4204    0.0000 ca      1  GRA         0.000000
   1351 C         154.5620   17.1923    0.0000 ca      1  GRA         0.000000
   1352 C         155.2710   18.4204    0.0000 ca      1  GRA         0.000000
   1353 C         157.3980   17.1923    0.0000 ca      1  GRA         0.000000
   1354 C         156.6890   18.4204    0.0000 ca      1  GRA         0.000000
   1355 C         158.8160   17.1923    0.0000 ca      1  GRA         0.000000
   1356 C         159.5250   18.4204    0.0000 ca      1  GRA         0.000000
   1357 C         161.6520   17.1923    0.0000 ca      1  GRA         0.000000
   1358 C         160.9430   18.4204    0.0000 ca      1  GRA         0.000000
   1359 C         163.0700   17.1923    0.0000 ca      1  GRA         0.000000
   1360 C         163.7790   18.4204    0.0000 ca      1  GRA         0.000000
   1361 C         165.9060   17.1923    0.0000 ca      1  GRA         0.000000
   1362 C         165.1970   18.4204    0.0000 ca      1  GRA         0.000000
   1363 C         167.3240   17.1923    0.0000 ca      1  GRA         0.000000
   1364 C         168.0330   18.4204    0.0000 ca      1  GRA         0.000000
   1365 C         170.1600   17.1923    0.0000 ca      1  GRA         0.000000
   1366 C         169.4510   18.4204    0.0000 ca      1  GRA         0.000000
   1367 C         171.5780   17.1923    0.0000 ca      1  GRA         0.000000
   1368 C         172.2870   18.4204    0.0000 ca      1  GRA         0.000000
   1369 C         174.4140   17.1923    0.0000 ca      1  GRA         0.000000
   1370 C         173.7050   18.4204    0.0000 ca      1  GRA         0.000000
   1371 C         175.8320   17.1923    0.0000 ca      1  GRA         0.000000
   1372 C         176.5410   18.4204    0.0000 ca      1  GRA         0.000000
   1373 C         178.6680   17.1923    0.0000 ca      1  GRA         0.000000
   1374 C         177.9590   18.4204    0.0000 ca      1  GRA         0.000000
   1375 C         180.0860   17.1923    0.0000 ca      1  GRA         0.000000
   1376 C         180.7950   18.4204    0.0000 ca      1  GRA         0.000000
   1377 C           0.0000   19.6484    0.0000 ca      1  GRA         0.000000
   1378 C          -0.7090   20.8764    0.0000 ca      1  GRA         0.000000
   1379 C           1.4180   19.6484    0.0000 ca      1  GRA         0.000000
   1380 C           2.1270   20.8764    0.0000 ca      1  GRA         0.000000
   1381 C           4.2540   19.6484    0.0000 ca      1  GRA         0.000000
   1382 C           3.5450   20.8764    0.0000 ca      1  GRA         0.000000
   1383 C           5.6720   19.6484    0.0000 ca      1  GRA         0.000000
   1384 C           6.3810   20.8764    0.0000 ca      1  GRA         0.000000
   1385 C           8.5080   19.6484    0.0000 ca      1  GRA         0.000000
   1386 C           7.7990   20.8764    0.0000 ca      1  GRA         0.000000
   1387 C           9.9260   19.6484    0.0000 ca      1  GRA         0.000000
   1388 C          10.6350   20.8764    0.0000 ca      1  GRA         0.000000
   1389 C          12.7620   19.6484    0.0000 ca      1  GRA         0.000000
   1390 C          12.0530   20.8764    0.0000 ca      1  GRA         0.000000
   1391 C          14.1800   19.6484    0.0000 ca      1  GRA         0.000000
   1392 C          14.8890   20.8764    0.0000 ca      1  GRA         0.000000
   1393 C          17.0160   19.6484    0.0000 ca      1  GRA         0.000000
   1394 C          16.3070   20.8764    0.0000 ca      1  GRA         0.000000
   1395 C          18.4340   19.6484    0.0000 ca      1  GRA         0.000000
   1396 C          19.1430   20.8764    0.0000 ca      1  GRA         0.000000
   1397 C          21.2700   19.6484    0.0000 ca      1  GRA         0.000000
   1398 C          20.5610   20.8764    0.0000 ca      1  GRA         0.000000
   1399 C          22.6880   19.6484    0.0000 ca      1  GRA         0.000000
   1400 C          23.3970   20.8764    0.0000 ca      1  GRA         0.000000
   1401 C          25.5240   19.6484    0.0000 ca      1  GRA         0.000000
   1402 C          24.8150   20.8764    0.0000 ca      1  GRA         0.000000
   1403 C          26.9420   19.6484    0.0000 ca      1  GRA         0.000000
   1404 C          27.6510   20.8764    0.0000 ca      1  GRA         0.000000
   1405 C          29.7780   19.6484    0.0000 ca      1  GRA         0.000000
   1406 C          29.0690   20.8764    0.0000 ca      1  GRA         0.000000
   1407 C          31.1960   19.6484    0.0000 ca      1  GRA         0.000000
   1408 C          31.9050   20.8764    0.0000 ca      1  GRA         0.000000
   1409 C          34.0320   19.6484    0.0000 ca      1  GRA         0.000000
   1410 C          33.3230   20.8764    0.0000 ca      1  GRA         0.000000
   1411 C          35.4500   19.6484    0.0000 ca      1  GRA         0.000000
   1412 C          36.1590   20.8764    0.0000 ca      1  GRA         0.000000
   1413 C          38.2860   19.6484    0.0000 ca      1  GRA         0.000000
   1414 C          37.5770   20.8764    0.0000 ca      1  GRA         0.000000
   1415 C          39.7040   19.6484    0.0000 ca      1  GRA         0.000000
   1416 C          40.4130   20.8764    0.0000 ca      1  GRA         0.000000
   1417 C          42.5400   19.6484    0.0000 ca      1  GRA         0.000000
   1418 C          41.8310   20.8764    0.0000 ca      1  GRA         0.000000
   1419 C          43.9580   19.6484    0.0000 ca      1  GRA         0.000000
   1420 C          44.6670   20.8764    0.0000 ca      1  GRA         0.000000
   1421 C          46.7940   19.6484    0.0000 ca      1  GRA         0.000000
   1422 C          46.0850   20.8764    0.0000 ca      1  GRA         0.000000
   1423 C          48.2120   19.6484    0.0000 ca      1  GRA         0.000000
   1424 C          48.9210   20.8764    0.0000 ca      1  GRA         0.000000
   1425 C          51.0480   19.6484    0.0000 ca      1  GRA         0.000000
   1426 C          50.3390   20.8764    0.0000 ca      1  GRA         0.000000
   1427 C          52.4660   19.6484    0.0000 ca      1  GRA         0.000000
   1428 C          53.1750   20.8764    0.0000 ca      1  GRA         0.000000
   1429 C          55.3020   19.6484    0.0000 ca      1  GRA         0.000000
   1430 C          54.5930   20.8764    0.0000 ca      1  GRA         0.000000
   1431 C          56.7200   19.6484    0.0000 ca      1  GRA         0.000000
   1432 C          57.4290   20.8764    0.0000 ca      1  GRA         0.000000
   1433 C          59.5560   19.6484    0.0000 ca      1  GRA         0.000000
   1434 C          58.8470   20.8764    0.0000 ca      1  GRA         0.000000
   1435 C          60.9740   19.6484    0.0000 ca      1  GRA         0.000000
   1436 C          61.6830   20.8764    0.0000 ca      1  GRA         0.000000
   1437 C          63.8100   19.6484    0.0000 ca      1  GRA         0.000000
   1438 C          63.1010   20.8764    0.0000 ca      1  GRA         0.000000
   1439 C          65.2280   19.6484    0.0000 ca      1  GRA         0.000000
   1440 C          65.9370   20.8764    0.0000 ca      1  GRA         0.000000
   1441 C          68.0640   19.6484    0.0000 ca      1  GRA         0.000000
   1442 C          67.3550   20.8764    0.0000 ca      1  GRA         0.000000
   1443 C          69.4820   19.6484    0.0000 ca      1  GRA         0.000000
   1444 C          70.1910   20.8764    0.0000 ca      1  GRA         0.000000
   1445 C          72.3180   19.6484    0.0000 ca      1  GRA         0.000000
   1446 C          71.6090   20.8764    0.0000 ca      1  GRA         0.000000
   1447 C          73.7360   19.6484    0.0000 ca      1  GRA         0.000000
   1448 C          74.4450   20.8764    0.0000 ca      1  GRA         0.000000
   1449 C          76.5720   19.6484    0.0000 ca      1  GRA         0.000000
   1450 C          75.8630   20.8764    0.0000 ca      1  GRA         0.000000
   1451 C          77.9900   19.6484    0.0000 ca      1  GRA         0.000000
   1452 C          78.6990   20.8764    0.0000 ca      1  GRA         0.000000
   1453 C          80.8260   19.6484    0.0000 ca      1  GRA         0.000000
   1454 C          80.1170   20.8764    0.0000 ca      1  GRA         0.000000
   1455 C          82.2440   19.6484    0.0000 ca      1  GRA         0.000000
   1456 C          82.9530   20.8764    0.0000 ca      1  GRA         0.000000
   1457 C          85.0800   19.6484    0.0000 ca      1  GRA         0.000000
   1458 C          84.3710   20.8764    0.0000 ca      1  GRA         0.000000
   1459 C          86.4980   19.6484    0.0000 ca      1  GRA         0.000000
   1460 C          87.2070   20.8764    0.0000 ca      1  GRA         0.000000
   1461 C          89.3340   19.6484    0.0000 ca      1  GRA         0.000000
   1462 C          88.6250   20.8764    0.0000 ca      1  GRA         0.000000
   1463 C          90.7520   19.6484    0.0000 ca      1  GRA         0.000000
   1464 C          91.4610   20.8764    0.0000 ca      1  GRA         0.000000
   1465 C          93.5880   19.6484    0.0000 ca      1  GRA         0.000000
   1466 C          92.8790   20.8764    0.0000 ca      1  GRA         0.000000
   1467 C          95.0060   19.6484    0.0000 ca      1  GRA         0.000000
   1468 C          95.7150   20.8764    0.0000 ca      1  GRA         0.000000
   1469 C          97.8420   19.6484    0.0000 ca      1  GRA         0.000000
   1470 C          97.1330   20.8764    0.0000 ca      1  GRA         0.000000
   1471 C          99.2600   19.6484    0.0000 ca      1  GRA         0.000000
   1472 C          99.9690   20.8764    0.0000 ca      1  GRA         0.000000
   1473 C         102.0960   19.6484    0.0000 ca      1  GRA         0.000000
   1474 C         101.3870   20.8764    0.0000 ca      1  GRA         0.000000
   1475 C         103.5140   19.6484    0.0000 ca      1  GRA         0.000000
   1476 C         104.2230   20.8764    0.0000 ca      1  GRA         0.000000
   1477 C         106.3500   19.6484    0.0000 ca      1  GRA         0.000000
   1478 C         105.6410   20.8764    0.0000 ca      1  GRA         0.000000
   1479 C         107.7680   19.6484    0.0000 ca      1  GRA         0.000000
   1480 C         108.4770   20.8764    0.0000 ca      1  GRA         0.000000
   1481 C         110.6040   19.6484    0.0000 ca      1  GRA         0.000000
   1482 C         109.8950   20.8764    0.0000 ca      1  GRA         0.000000
   1483 C         112.0220   19.6484    0.0000 ca      1  GRA         0.000000
   1484 C         112.7310   20.8764    0.0000 ca      1  GRA         0.000000
   1485 C         114.8580   19.6484    0.0000 ca      1  GRA         0.000000
   1486 C         114.1490   20.8764    0.0000 ca      1  GRA         0.000000
   1487 C         116.2760   19.6484    0.0000 ca      1  GRA         0.000000
   1488 C         116.9850   20.8764    0.0000 ca      1  GRA         0.000000
   1489 C         119.1120   19.6484    0.0000 ca      1  GRA         0.000000
   1490 C         118.4030   20.8764    0.0000 ca      1  GRA         0.000000
   1491 C         120.5300   19.6484    0.0000 ca      1  GRA         0.000000
   1492 C         121.2390   20.8764    0.0000 ca      1  GRA         0.000000
   1493 C         123.3660   19.6484    0.0000 ca      1  GRA         0.000000
   1494 C         122.6570   20.8764    0.0000 ca      1  GRA         0.000000
   1495 C         124.7840   19.6484    0.0000 ca      1  GRA         0.000000
   1496 C         125.4930   20.8764    0.0000 ca      1  GRA         0.000000
   1497 C         127.6200   19.6484    0.0000 ca      1  GRA         0.000000
   1498 C         126.9110   20.8764    0.0000 ca      1  GRA         0.000000
   1499 C         129.0380   19.6484    0.0000 ca      1  GRA         0.000000
   1500 C         129.7470   20.8764    0.0000 ca      1  GRA         0.000000
   1501 C         131.8740   19.6484    0.0000 ca      1  GRA         0.000000
   1502 C         131.1650   20.8764    0.0000 ca      1  GRA         0.000000
   1503 C         133.2920   19.6484    0.0000 ca      1  GRA         0.000000
   1504 C         134.0010   20.8764    0.0000 ca      1  GRA         0.000000
   1505 C         136.1280   19.6484    0.0000 ca      1  GRA         0.000000
   1506 C         135.4190   20.8764    0.0000 ca      1  GRA         0.000000
   1507 C         137.5460   19.6484    0.0000 ca      1  GRA         0.000000
   1508 C         138.2550   20.8764    0.0000 ca      1  GRA         0.000000
   1509 C         140.3820   19.6484    0.0000 ca      1  GRA         0.000000
   1510 C         139.6730   20.8764    0.0000 ca      1  GRA         0.000000
   1511 C         141.8000   19.6484    0.0000 ca      1  GRA         0.000000
   1512 C         142.5090   20.8764    0.0000 ca      1  GRA         0.000000
   1513 C         144.6360   19.6484    0.0000 ca      1  GRA         0.000000
   1514 C         143.9270   20.8764    0.0000 ca      1  GRA         0.000000
   1515 C         146.0540   19.6484    0.0000 ca      1  GRA         0.000000
   1516 C         146.7630   20.8764    0.0000 ca      1  GRA         0.000000
   1517 C         148.8900   19.6484    0.0000 ca      1  GRA         0.000000
   1518 C         148.1810   20.8764    0.0000 ca      1  GRA         0.000000
   1519 C         150.3080   19.6484    0.0000 ca      1  GRA         0.000000
   1520 C         151.0170   20.8764    0.0000 ca      1  GRA         0.000000
   1521 C         153.1440   19.6484    0.0000 ca      1  GRA         0.000000
   1522 C         152.4350   20.8764    0.0000 ca      1  GRA         0.000000
   1523 C         154.5620   19.6484    0.0000 ca      1  GRA         0.000000
   1524 C         155.2710   20.8764    0.0000 ca      1  GRA         0.000000
   1525 C         157.3980   19.6484    0.0000 ca      1  GRA         0.000000
   1526 C         156.6890   20.8764    0.0000 ca      1  GRA         0.000000
   1527 C         158.8160   19.6484    0.0000 ca      1  GRA         0.000000
   1528 C         159.5250   20.8764    0.0000 ca      1  GRA         0.000000
   1529 C         161.6520   19.6484    0.0000 ca      1  GRA         0.000000
   1530 C         160.9430   20.8764    0.0000 ca      1  GRA         0.000000
   1531 C         163.0700   19.6484    0.0000 ca      1  GRA         0.000000
   1532 C         163.7790   20.8764    0.0000 ca      1  GRA         0.000000
   1533 C         165.9060   19.6484    0.0000 ca      1  GRA         0.000000
   1534 C         165.1970   20.8764    0.0000 ca      1  GRA         0.000000
   1535 C         167.3240   19.6484    0.0000 ca      1  GRA         0.000000
   1536 C         168.0330   20.8764    0.0000 ca      1  GRA         0.000000
   1537 C         170.1600   19.6484    0.0000 ca      1  GRA         0.000000
   1538 C         169.4510   20.8764    0.0000 ca      1  GRA         0.000000
   1539 C         171.5780   19.6484    0.0000 ca      1  GRA         0.000000
   1540 C         172.2870   20.8764    0.0000 ca      1  GRA         0.000000
   1541 C         174.4140   19.6484    0.0000 ca      1  GRA         0.000000
   1542 C         173.7050   20.8764    0.0000 ca      1  GRA         0.000000
   1543 C         175.8320   19.6484    0.0000 ca      1  GRA         0.000000
   1544 C         176.5410   20.8764    0.0000 ca      1  GRA         0.000000
   1545 C         178.6680   19.6484    0.0000 ca      1  GRA         0.000000
   1546 C         177.9590   20.8764    0.0000 ca      1  GRA         0.000000
   1547 C         180.0860   19.6484    0.0000 ca      1  GRA         0.000000
   1548 C         180.7950   20.8764    0.0000 ca      1  GRA         0.000000
   1549 C           0.0000   22.1044    0.0000 ca      1  GRA         0.000000
   1550 C          -0.7090   23.3325    0.0000 ca      1  GRA         0.000000
   1551 C           1.4180   22.1044    0.0000 ca      1  GRA         0.000000
   1552 C           2.1270   23.3325    0.0000 ca      1  GRA         0.000000
   1553 C           4.2540   22.1044    0.0000 ca      1  GRA         0.000000
   1554 C           3.5450   23.3325    0.0000 ca      1  GRA         0.000000
   1555 C           5.6720   22.1044    0.0000 ca      1  GRA         0.000000
   1556 C           6.3810   23.3325    0.0000 ca      1  GRA         0.000000
   1557 C           8.5080   22.1044    0.0000 ca      1  GRA         0.000000
   1558 C           7.7990   23.3325    0.0000 ca      1  GRA         0.000000
   1559 C           9.9260   22.1044    0.0000 ca      1  GRA         0.000000
   1560 C          10.6350   23.3325    0.0000 ca      1  GRA         0.000000
   1561 C          12.7620   22.1044    0.0000 ca      1  GRA         0.000000
   1562 C          12.0530   23.3325    0.0000 ca      1  GRA         0.000000
   1563 C          14.1800   22.1044    0.0000 ca      1  GRA         0.000000
   1564 C          14.8890   23.3325    0.0000 ca      1  GRA         0.000000
   1565 C          17.0160   22.1044    0.0000 ca      1  GRA         0.000000
   1566 C          16.3070   23.3325    0.0000 ca      1  GRA         0.000000
   1567 C          18.4340   22.1044    0.0000 ca      1  GRA         0.000000
   1568 C          19.1430   23.3325    0.0000 ca      1  GRA         0.000000
   1569 C          21.2700   22.1044    0.0000 ca      1  GRA         0.000000
   1570 C          20.5610   23.3325    0.0000 ca      1  GRA         0.000000
   1571 C          22.6880   22.1044    0.0000 ca      1  GRA         0.000000
   1572 C          23.3970   23.3325    0.0000 ca      1  GRA         0.000000
   1573 C          25.5240   22.1044    0.0000 ca      1  GRA         0.000000
   1574 C          24.8150   23.3325    0.0000 ca      1  GRA         0.000000
   1575 C          26.9420   22.1044    0.0000 ca      1  GRA         0.000000
   1576 C          27.6510   23.3325    0.0000 ca      1  GRA         0.000000
   1577 C          29.7780   22.1044    0.0000 ca      1  GRA         0.000000
   1578 C          29.0690   23.3325    0.0000 ca      1  GRA         0.000000
   1579 C          31.1960   22.1044    0.0000 ca      1  GRA         0.000000
   1580 C          31.9050   23.3325    0.0000 ca      1  GRA         0.000000
   1581 C          34.0320   22.1044    0.0000 ca      1  GRA         0.000000
   1582 C          33.3230   23.3325    0.0000 ca      1  GRA         0.000000
   1583 C          35.4500   22.1044    0.0000 ca      1  GRA         0.000000
   1584 C          36.1590   23.3325    0.0000 ca      1  GRA         0.000000
   1585 C          38.2860   22.1044    0.0000 ca      1  GRA         0.000000
   1586 C          37.5770   23.3325    0.0000 ca      1  GRA         0.000000
   1587 C          39.7040   22.1044    0.0000 ca      1  GRA         0.000000
   1588 C          40.4130   23.3325    0.0000 ca      1  GRA         0.000000
   1589 C          42.5400   22.1044    0.0000 ca      1  GRA         0.000000
   1590 C          41.8310   23.3325    0.0000 ca      1  GRA         0.000000
   1591 C          43.9580   22.1044    0.0000 ca      1  GRA         0.000000
   1592 C          44.6670   23.3325    0.0000 ca      1  GRA         0.000000
   1593 C          46.7940   22.1044    0.0000 ca      1  GRA         0.000000
   1594 C          46.0850   23.3325    0.0000 ca      1  GRA         0.000000
   1595 C          48.2120   22.1044    0.0000 ca      1  GRA         0.000000
   1596 C          48.9210   23.3325    0.0000 ca      1  GRA         0.000000
   1597 C          51.0480   22.1044    0.0000 ca      1  GRA         0.000000
   1598 C          50.3390   23.3325    0.0000 ca      1  GRA         0.000000
   1599 C          52.4660   22.1044    0.0000 ca      1  GRA         0.000000
   1600 C          53.1750   23.3325    0.0000 ca      1  GRA         0.000000
   1601 C          55.3020   22.1044    0.0000 ca      1  GRA         0.000000
   1602 C          54.5930   23.3325    0.0000 ca      1  GRA         0.000000
   1603 C          56.7200   22.1044    0.0000 ca      1  GRA         0.000000
   1604 C          57.4290   23.3325    0.0000 ca      1  GRA         0.000000
   1605 C          59.5560   22.1044    0.0000 ca      1  GRA         0.000000
   1606 C          58.8470   23.3325    0.0000 ca      1  GRA         0.000000
   1607 C          60.9740   22.1044    0.0000 ca      1  GRA         0.000000
   1608 C          61.6830   23.3325    0.0000 ca      1  GRA         0.000000
   1609 C          63.8100   22.1044    0.0000 ca      1  GRA         0.000000
   1610 C          63.1010   23.3325    0.0000 ca      1  GRA         0.000000
   1611 C          65.2280   22.1044    0.0000 ca      1  GRA         0.000000
   1612 C          65.9370   23.3325    0.0000 ca      1  GRA         0.000000
   1613 C          68.0640   22.1044    0.0000 ca      1  GRA         0.000000
   1614 C          67.3550   23.3325    0.0000 ca      1  GRA         0.000000
   1615 C          69.4820   22.1044    0.0000 ca      1  GRA         0.000000
   1616 C          70.1910   23.3325    0.0000 ca      1  GRA         0.000000
   1617 C          72.3180   22.1044    0.0000 ca      1  GRA         0.000000
   1618 C          71.6090   23.3325    0.0000 ca      1  GRA         0.000000
   1619 C          73.7360   22.1044    0.0000 ca      1  GRA         0.000000
   1620 C          74.4450   23.3325    0.0000 ca      1  GRA         0.000000
   1621 C          76.5720   22.1044    0.0000 ca      1  GRA         0.000000
   1622 C          75.8630   23.3325    0.0000 ca      1  GRA         0.000000
   1623 C          77.9900   22.1044    0.0000 ca      1  GRA         0.000000
   1624 C          78.6990   23.3325    0.0000 ca      1  GRA         0.000000
   1625 C          80.8260   22.1044    0.0000 ca      1  GRA         0.000000
   1626 C          80.1170   23.3325    0.0000 ca      1  GRA         0.000000
   1627 C          82.2440   22.1044    0.0000 ca      1  GRA         0.000000
   1628 C          82.9530   23.3325    0.0000 ca      1  GRA         0.000000
   1629 C          85.0800   22.1044    0.0000 ca      1  GRA         0.000000
   1630 C          84.3710   23.3325    0.0000 ca      1  GRA         0.000000
   1631 C          86.4980   22.1044    0.0000 ca      1  GRA         0.000000
   1632 C          87.2070   23.3325    0.0000 ca      1  GRA         0.000000
   1633 C          89.3340   22.1044    0.0000 ca      1  GRA         0.000000
   1634 C          88.6250   23.3325    0.0000 ca      1  GRA         0.000000
   1635 C          90.7520   22.1044    0.0000 ca      1  GRA         0.000000
   1636 C          91.4610   23.3325    0.0000 ca      1  GRA         0.000000
   1637 C          93.5880   22.1044    0.0000 ca      1  GRA         0.000000
   1638 C          92.8790   23.3325    0.0000 ca      1  GRA         0.000000
   1639 C          95.0060   22.1044    0.0000 ca      1  GRA         0.000000
   1640 C          95.7150   23.3325    0.0000 ca      1  GRA         0.000000
   1641 C          97.8420   22.1044    0.0000 ca      1  GRA         0.000000
   1642 C          97.1330   23.3325    0.0000 ca      1  GRA         0.000000
   1643 C          99.2600   22.1044    0.0000 ca      1  GRA         0.000000
   1644 C          99.9690   23.3325    0.0000 ca      1  GRA         0.000000
   1645 C         102.0960   22.1044    0.0000 ca      1  GRA         0.000000
   1646 C         101.3870   23.3325    0.0000 ca      1  GRA         0.000000
   1647 C         103.5140   22.1044    0.0000 ca      1  GRA         0.000000
   1648 C         104.2230   23.3325    0.0000 ca      1  GRA         0.000000
   1649 C         106.3500   22.1044    0.0000 ca      1  GRA         0.000000
   1650 C         105.6410   23.3325    0.0000 ca      1  GRA         0.000000
   1651 C         107.7680   22.1044    0.0000 ca      1  GRA         0.000000
   1652 C         108.4770   23.3325    0.0000 ca      1  GRA         0.000000
   1653 C         110.6040   22.1044    0.0000 ca      1  GRA         0.000000
   1654 C         109.8950   23.3325    0.0000 ca      1  GRA         0.000000
   1655 C         112.0220   22.1044    0.0000 ca      1  GRA         0.000000
   1656 C         112.7310   23.3325    0.0000 ca      1  GRA         0.000000
   1657 C         114.8580   22.1044    0.0000 ca      1  GRA         0.000000
   1658 C         114.1490   23.3325    0.0000 ca      1  GRA         0.000000
   1659 C         116.2760   22.1044    0.0000 ca      1  GRA         0.000000
   1660 C         116.9850   23.3325    0.0000 ca      1  GRA         0.000000
   1661 C         119.1120   22.1044    0.0000 ca      1  GRA         0.000000
   1662 C         118.4030   23.3325    0.0000 ca      1  GRA         0.000000
   1663 C         120.5300   22.1044    0.0000 ca      1  GRA         0.000000
   1664 C         121.2390   23.3325    0.0000 ca      1  GRA         0.000000
   1665 C         123.3660   22.1044    0.0000 ca      1  GRA         0.000000
   1666 C         122.6570   23.3325    0.0000 ca      1  GRA         0.000000
   1667 C         124.7840   22.1044    0.0000 ca      1  GRA         0.000000
   1668 C         125.4930   23.3325    0.0000 ca      1  GRA         0.000000
   1669 C         127.6200   22.1044    0.0000 ca      1  GRA         0.000000
   1670 C         126.9110   23.3325    0.0000 ca      1  GRA         0.000000
   1671 C         129.0380   22.1044    0.0000 ca      1  GRA         0.000000
   1672 C         129.7470   23.3325    0.0000 ca      1  GRA         0.000000
   1673 C         131.8740   22.1044    0.0000 ca      1  GRA         0.000000
   1674 C         131.1650   23.3325    0.0000 ca      1  GRA         0.000000
   1675 C         133.2920   22.1044    0.0000 ca      1  GRA         0.000000
   1676 C         134.0010   23.3325    0.0000 ca      1  GRA         0.000000
   1677 C         136.1280   22.1044    0.0000 ca      1  GRA         0.000000
   1678 C         135.4190   23.3325    0.0000 ca      1  GRA         0.000000
   1679 C         137.5460   22.1044    0.0000 ca      1  GRA         0.000000
   1680 C         138.2550   23.3325    0.0000 ca      1  GRA         0.000000
   1681 C         140.3820   22.1044    0.0000 ca      1  GRA         0.000000
   1682 C         139.6730   23.3325    0.0000 ca      1  GRA         0.000000
   1683 C         141.8000   22.1044    0.0000 ca      1  GRA         0.000000
   1684 C         142.5090   23.3325    0.0000 ca      1  GRA         0.000000
   1685 C         144.6360   22.1044    0.0000 ca      1  GRA         0.000000
   1686 C         143.9270   23.3325    0.0000 ca      1  GRA         0.000000
   1687 C         146.0540   22.1044    0.0000 ca      1  GRA         0.000000
   1688 C         146.7630   23.3325    0.0000 ca      1  GRA         0.000000
   1689 C         148.8900   22.1044    0.0000 ca      1  GRA         0.000000
   1690 C         148.1810   23.3325    0.0000 ca      1  GRA         0.000000
   1691 C         150.3080   22.1044    0.0000 ca      1  GRA         0.000000
   1692 C         151.0170   23.3325    0.0000 ca      1  GRA         0.000000
   1693 C         153.1440   22.1044    0.0000 ca      1  GRA         0.000000
   1694 C         152.4350   23.3325    0.0000 ca      1  GRA         0.000000
   1695 C         154.5620   22.1044    0.0000 ca      1  GRA         0.000000
   1696 C         155.2710   23.3325    0.0000 ca      1  GRA         0.000000
   1697 C         157.3980   22.1044    0.0000 ca      1  GRA         0.000000
   1698 C         156.6890   23.3325    0.0000 ca      1  GRA         0.000000
   1699 C         158.8160   22.1044    0.0000 ca      1  GRA         0.000000
   1700 C         159.5250   23.3325    0.0000 ca      1  GRA         0.000000
   1701 C         161.6520   22.1044    0.0000 ca      1  GRA         0.000000
   1702 C         160.9430   23.3325    0.0000 ca      1  GRA         0.000000
   1703 C         163.0700   22.1044    0.0000 ca      1  GRA         0.000000
   1704 C         163.7790   23.3325    0.0000 ca      1  GRA         0.000000
   1705 C         165.9060   22.1044    0.0000 ca      1  GRA         0.000000
   1706 C         165.1970   23.3325    0.0000 ca      1  GRA         0.000000
   1707 C         167.3240   22.1044    0.0000 ca      1  GRA         0.000000
   1708 C         168.0330   23.3325    0.0000 ca      1  GRA         0.000000
   1709 C         170.1600   22.1044    0.0000 ca      1  GRA         0.000000
   1710 C         169.4510   23.3325    0.0000 ca      1  GRA         0.000000
   1711 C         171.5780   22.1044    0.0000 ca      1  GRA         0.000000
   1712 C         172.2870   23.3325    0.0000 ca      1  GRA         0.000000
   1713 C         174.4140   22.1044    0.0000 ca      1  GRA         0.000000
   1714 C         173.7050   23.3325    0.0000 ca      1  GRA         0.000000
   1715 C         175.8320   22.1044    0.0000 ca      1  GRA         0.000000
   1716 C         176.5410   23.3325    0.0000 ca      1  GRA         0.000000
   1717 C         178.6680   22.1044    0.0000 ca      1  GRA         0.000000
   1718 C         177.9590   23.3325    0.0000 ca      1  GRA         0.000000
   1719 C         180.0860   22.1044    0.0000 ca      1  GRA         0.000000
   1720 C         180.7950   23.3325    0.0000 ca      1  GRA         0.000000
   1721 C           0.0000   24.5605    0.0000 ca      1  GRA         0.000000
   1722 C          -0.7090   25.7885    0.0000 ca      1  GRA         0.000000
   1723 C           1.4180   24.5605    0.0000 ca      1  GRA         0.000000
   1724 C           2.1270   25.7885    0.0000 ca      1  GRA         0.000000
   1725 C           4.2540   24.5605    0.0000 ca      1  GRA         0.000000
   1726 C           3.5450   25.7885    0.0000 ca      1  GRA         0.000000
   1727 C           5.6720   24.5605    0.0000 ca      1  GRA         0.000000
   1728 C           6.3810   25.7885    0.0000 ca      1  GRA         0.000000
   1729 C           8.5080   24.5605    0.0000 ca      1  GRA         0.000000
   1730 C           7.7990   25.7885    0.0000 ca      1  GRA         0.000000
   1731 C           9.9260   24.5605    0.0000 ca      1  GRA         0.000000
   1732 C          10.6350   25.7885    0.0000 ca      1  GRA         0.000000
   1733 C          12.7620   24.5605    0.0000 ca      1  GRA         0.000000
   1734 C          12.0530   25.7885    0.0000 ca      1  GRA         0.000000
   1735 C          14.1800   24.5605    0.0000 ca      1  GRA         0.000000
   1736 C          14.8890   25.7885    0.0000 ca      1  GRA         0.000000
   1737 C          17.0160   24.5605    0.0000 ca      1  GRA         0.000000
   1738 C          16.3070   25.7885    0.0000 ca      1  GRA         0.000000
   1739 C          18.4340   24.5605    0.0000 ca      1  GRA         0.000000
   1740 C          19.1430   25.7885    0.0000 ca      1  GRA         0.000000
   1741 C          21.2700   24.5605    0.0000 ca      1  GRA         0.000000
   1742 C          20.5610   25.7885    0.0000 ca      1  GRA         0.000000
   1743 C          22.6880   24.5605    0.0000 ca      1  GRA         0.000000
   1744 C          23.3970   25.7885    0.0000 ca      1  GRA         0.000000
   1745 C          25.5240   24.5605    0.0000 ca      1  GRA         0.000000
   1746 C          24.8150   25.7885    0.0000 ca      1  GRA         0.000000
   1747 C          26.9420   24.5605    0.0000 ca      1  GRA         0.000000
   1748 C          27.6510   25.7885    0.0000 ca      1  GRA         0.000000
   1749 C          29.7780   24.5605    0.0000 ca      1  GRA         0.000000
   1750 C          29.0690   25.7885    0.0000 ca      1  GRA         0.000000
   1751 C          31.1960   24.5605    0.0000 ca      1  GRA         0.000000
   1752 C          31.9050   25.7885    0.0000 ca      1  GRA         0.000000
   1753 C          34.0320   24.5605    0.0000 ca      1  GRA         0.000000
   1754 C          33.3230   25.7885    0.0000 ca      1  GRA         0.000000
   1755 C          35.4500   24.5605    0.0000 ca      1  GRA         0.000000
   1756 C          36.1590   25.7885    0.0000 ca      1  GRA         0.000000
   1757 C          38.2860   24.5605    0.0000 ca      1  GRA         0.000000
   1758 C          37.5770   25.7885    0.0000 ca      1  GRA         0.000000
   1759 C          39.7040   24.5605    0.0000 ca      1  GRA         0.000000
   1760 C          40.4130   25.7885    0.0000 ca      1  GRA         0.000000
   1761 C          42.5400   24.5605    0.0000 ca      1  GRA         0.000000
   1762 C          41.8310   25.7885    0.0000 ca      1  GRA         0.000000
   1763 C          43.9580   24.5605    0.0000 ca      1  GRA         0.000000
   1764 C          44.6670   25.7885    0.0000 ca      1  GRA         0.000000
   1765 C          46.7940   24.5605    0.0000 ca      1  GRA         0.000000
   1766 C          46.0850   25.7885    0.0000 ca      1  GRA         0.000000
   1767 C          48.2120   24.5605    0.0000 ca      1  GRA         0.000000
   1768 C          48.9210   25.7885    0.0000 ca      1  GRA         0.000000
   1769 C          51.0480   24.5605    0.0000 ca      1  GRA         0.000000
   1770 C          50.3390   25.7885    0.0000 ca      1  GRA         0.000000
   1771 C          52.4660   24.5605    0.0000 ca      1  GRA         0.000000
   1772 C          53.1750   25.7885    0.0000 ca      1  GRA         0.000000
   1773 C          55.3020   24.5605    0.0000 ca      1  GRA         0.000000
   1774 C          54.5930   25.7885    0.0000 ca      1  GRA         0.000000
   1775 C          56.7200   24.5605    0.0000 ca      1  GRA         0.000000
   1776 C          57.4290   25.7885    0.0000 ca      1  GRA         0.000000
   1777 C          59.5560   24.5605    0.0000 ca      1  GRA         0.000000
   1778 C          58.8470   25.7885    0.0000 ca      1  GRA         0.000000
   1779 C          60.9740   24.5605    0.0000 ca      1  GRA         0.000000
   1780 C          61.6830   25.7885    0.0000 ca      1  GRA         0.000000
   1781 C          63.8100   24.5605    0.0000 ca      1  GRA         0.000000
   1782 C          63.1010   25.7885    0.0000 ca      1  GRA         0.000000
   1783 C          65.2280   24.5605    0.0000 ca      1  GRA         0.000000
   1784 C          65.9370   25.7885    0.0000 ca      1  GRA         0.000000
   1785 C          68.0640   24.5605    0.0000 ca      1  GRA         0.000000
   1786 C          67.3550   25.7885    0.0000 ca      1  GRA         0.000000
   1787 C          69.4820   24.5605    0.0000 ca      1  GRA         0.000000
   1788 C          70.1910   25.7885    0.0000 ca      1  GRA         0.000000
   1789 C          72.3180   24.5605    0.0000 ca      1  GRA         0.000000
   1790 C          71.6090   25.7885    0.0000 ca      1  GRA         0.000000
   1791 C          73.7360   24.5605    0.0000 ca      1  GRA         0.000000
   1792 C          74.4450   25.7885    0.0000 ca      1  GRA         0.000000
   1793 C          76.5720   24.5605    0.0000 ca      1  GRA         0.000000
   1794 C          75.8630   25.7885    0.0000 ca      1  GRA         0.000000
   1795 C          77.9900   24.5605    0.0000 ca      1  GRA         0.000000
   1796 C          78.6990   25.7885    0.0000 ca      1  GRA         0.000000
   1797 C          80.8260   24.5605    0.0000 ca      1  GRA         0.000000
   1798 C          80.1170   25.7885    0.0000 ca      1  GRA         0.000000
   1799 C          82.2440   24.5605    0.0000 ca      1  GRA         0.000000
   1800 C          82.9530   25.7885    0.0000 ca      1  GRA         0.000000
   1801 C          85.0800   24.5605    0.0000 ca      1  GRA         0.000000
   1802 C          84.3710   25.7885    0.0000 ca      1  GRA         0.000000
   1803 C          86.4980   24.5605    0.0000 ca      1  GRA         0.000000
   1804 C          87.2070   25.7885    0.0000 ca      1  GRA         0.000000
   1805 C          89.3340   24.5605    0.0000 ca      1  GRA         0.000000
   1806 C          88.6250   25.7885    0.0000 ca      1  GRA         0.000000
   1807 C          90.7520   24.5605    0.0000 ca      1  GRA         0.000000
   1808 C          91.4610   25.7885    0.0000 ca      1  GRA         0.000000
   1809 C          93.5880   24.5605    0.0000 ca      1  GRA         0.000000
   1810 C          92.8790   25.7885    0.0000 ca      1  GRA         0.000000
   1811 C          95.0060   24.5605    0.0000 ca      1  GRA         0.000000
   1812 C          95.7150   25.7885    0.0000 ca      1  GRA         0.000000
   1813 C          97.8420   24.5605    0.0000 ca      1  GRA         0.000000
   1814 C          97.1330   25.7885    0.0000 ca      1  GRA         0.000000
   1815 C          99.2600   24.5605    0.0000 ca      1  GRA         0.000000
   1816 C          99.9690   25.7885    0.0000 ca      1  GRA         0.000000
   1817 C         102.0960   24.5605    0.0000 ca      1  GRA         0.000000
   1818 C         101.3870   25.7885    0.0000 ca      1  GRA         0.000000
   1819 C         103.5140   24.5605    0.0000 ca      1  GRA         0.000000
   1820 C         104.2230   25.7885    0.0000 ca      1  GRA         0.000000
   1821 C         106.3500   24.5605    0.0000 ca      1  GRA         0.000000
   1822 C         105.6410   25.7885    0.0000 ca      1  GRA         0.000000
   1823 C         107.7680   24.5605    0.0000 ca      1  GRA         0.000000
   1824 C         108.4770   25.7885    0.0000 ca      1  GRA         0.000000
   1825 C         110.6040   24.5605    0.0000 ca      1  GRA         0.000000
   1826 C         109.8950   25.7885    0.0000 ca      1  GRA         0.000000
   1827 C         112.0220   24.5605    0.0000 ca      1  GRA         0.000000
   1828 C         112.7310   25.7885    0.0000 ca      1  GRA         0.000000
   1829 C         114.8580   24.5605    0.0000 ca      1  GRA         0.000000
   1830 C         114.1490   25.7885    0.0000 ca      1  GRA         0.000000
   1831 C         116.2760   24.5605    0.0000 ca      1  GRA         0.000000
   1832 C         116.9850   25.7885    0.0000 ca      1  GRA         0.000000
   1833 C         119.1120   24.5605    0.0000 ca      1  GRA         0.000000
   1834 C         118.4030   25.7885    0.0000 ca      1  GRA         0.000000
   1835 C         120.5300   24.5605    0.0000 ca      1  GRA         0.000000
   1836 C         121.2390   25.7885    0.0000 ca      1  GRA         0.000000
   1837 C         123.3660   24.5605    0.0000 ca      1  GRA         0.000000
   1838 C         122.6570   25.7885    0.0000 ca      1  GRA         0.000000
   1839 C         124.7840   24.5605    0.0000 ca      1  GRA         0.000000
   1840 C         125.4930   25.7885    0.0000 ca      1  GRA         0.000000
   1841 C         127.6200   24.5605    0.0000 ca      1  GRA         0.000000
   1842 C         126.9110   25.7885    0.0000 ca      1  GRA         0.000000
   1843 C         129.0380   24.5605    0.0000 ca      1  GRA         0.000000
   1844 C         129.7470   25.7885    0.0000 ca      1  GRA         0.000000
   1845 C         131.8740   24.5605    0.0000 ca      1  GRA         0.000000
   1846 C         131.1650   25.7885    0.0000 ca      1  GRA         0.000000
   1847 C         133.2920   24.5605    0.0000 ca      1  GRA         0.000000
   1848 C         134.0010   25.7885    0.0000 ca      1  GRA         0.000000
   1849 C         136.1280   24.5605    0.0000 ca      1  GRA         0.000000
   1850 C         135.4190   25.7885    0.0000 ca      1  GRA         0.000000
   1851 C         137.5460   24.5605    0.0000 ca      1  GRA         0.000000
   1852 C         138.2550   25.7885    0.0000 ca      1  GRA         0.000000
   1853 C         140.3820   24.5605    0.0000 ca      1  GRA         0.000000
   1854 C         139.6730   25.7885    0.0000 ca      1  GRA         0.000000
   1855 C         141.8000   24.5605    0.0000 ca      1  GRA         0.000000
   1856 C         142.5090   25.7885    0.0000 ca      1  GRA         0.000000
   1857 C         144.6360   24.5605    0.0000 ca      1  GRA         0.000000
   1858 C         143.9270   25.7885    0.0000 ca      1  GRA         0.000000
   1859 C         146.0540   24.5605    0.0000 ca      1  GRA         0.000000
   1860 C         146.7630   25.7885    0.0000 ca      1  GRA         0.000000
   1861 C         148.8900   24.5605    0.0000 ca      1  GRA         0.000000
   1862 C         148.1810   25.7885    0.0000 ca      1  GRA         0.000000
   1863 C         150.3080   24.5605    0.0000 ca      1  GRA         0.000000
   1864 C         151.0170   25.7885    0.0000 ca      1  GRA         0.000000
   1865 C         153.1440   24.5605    0.0000 ca      1  GRA         0.000000
   1866 C         152.4350   25.7885    0.0000 ca      1  GRA         0.000000
   1867 C         154.5620   24.5605    0.0000 ca      1  GRA         0.000000
   1868 C         155.2710   25.7885    0.0000 ca      1  GRA         0.000000
   1869 C         157.3980   24.5605    0.0000 ca      1  GRA         0.000000
   1870 C         156.6890   25.7885    0.0000 ca      1  GRA         0.000000
   1871 C         158.8160   24.5605    0.0000 ca      1  GRA         0.000000
   1872 C         159.5250   25.7885    0.0000 ca      1  GRA         0.000000
   1873 C         161.6520   24.5605    0.0000 ca      1  GRA         0.000000
   1874 C         160.9430   25.7885    0.0000 ca      1  GRA         0.000000
   1875 C         163.0700   24.5605    0.0000 ca      1  GRA         0.000000
   1876 C         163.7790   25.7885    0.0000 ca      1  GRA         0.000000
   1877 C         165.9060   24.5605    0.0000 ca      1  GRA         0.000000
   1878 C         165.1970   25.7885    0.0000 ca      1  GRA         0.000000
   1879 C         167.3240   24.5605    0.0000 ca      1  GRA         0.000000
   1880 C         168.0330   25.7885    0.0000 ca      1  GRA         0.000000
   1881 C         170.1600   24.5605    0.0000 ca      1  GRA         0.000000
   1882 C         169.4510   25.7885    0.0000 ca      1  GRA         0.000000
   1883 C         171.5780   24.5605    0.0000 ca      1  GRA         0.000000
   1884 C         172.2870   25.7885    0.0000 ca      1  GRA         0.000000
   1885 C         174.4140   24.5605    0.0000 ca      1  GRA         0.000000
   1886 C         173.7050   25.7885    0.0000 ca      1  GRA         0.000000
   1887 C         175.8320   24.5605    0.0000 ca      1  GRA         0.000000
   1888 C         176.5410   25.7885    0.0000 ca      1  GRA         0.000000
   1889 C         178.6680   24.5605    0.0000 ca      1  GRA         0.000000
   1890 C         177.9590   25.7885    0.0000 ca      1  GRA         0.000000
   1891 C         180.0860   24.5605    0.0000 ca      1  GRA         0.000000
   1892 C         180.7950   25.7885    0.0000 ca      1  GRA         0.000000
   1893 C           0.0000   27.0165    0.0000 ca      1  GRA         0.000000
   1894 C          -0.7090   28.2446    0.0000 ca      1  GRA         0.000000
   1895 C           1.4180   27.0165    0.0000 ca      1  GRA         0.000000
   1896 C           2.1270   28.2446    0.0000 ca      1  GRA         0.000000
   1897 C           4.2540   27.0165    0.0000 ca      1  GRA         0.000000
   1898 C           3.5450   28.2446    0.0000 ca      1  GRA         0.000000
   1899 C           5.6720   27.0165    0.0000 ca      1  GRA         0.000000
   1900 C           6.3810   28.2446    0.0000 ca      1  GRA         0.000000
   1901 C           8.5080   27.0165    0.0000 ca      1  GRA         0.000000
   1902 C           7.7990   28.2446    0.0000 ca      1  GRA         0.000000
   1903 C           9.9260   27.0165    0.0000 ca      1  GRA         0.000000
   1904 C          10.6350   28.2446    0.0000 ca      1  GRA         0.000000
   1905 C          12.7620   27.0165    0.0000 ca      1  GRA         0.000000
   1906 C          12.0530   28.2446    0.0000 ca      1  GRA         0.000000
   1907 C          14.1800   27.0165    0.0000 ca      1  GRA         0.000000
   1908 C          14.8890   28.2446    0.0000 ca      1  GRA         0.000000
   1909 C          17.0160   27.0165    0.0000 ca      1  GRA         0.000000
   1910 C          16.3070   28.2446    0.0000 ca      1  GRA         0.000000
   1911 C          18.4340   27.0165    0.0000 ca      1  GRA         0.000000
   1912 C          19.1430   28.2446    0.0000 ca      1  GRA         0.000000
   1913 C          21.2700   27.0165    0.0000 ca      1  GRA         0.000000
   1914 C          20.5610   28.2446    0.0000 ca      1  GRA         0.000000
   1915 C          22.6880   27.0165    0.0000 ca      1  GRA         0.000000
   1916 C          23.3970   28.2446    0.0000 ca      1  GRA         0.000000
   1917 C          25.5240   27.0165    0.0000 ca      1  GRA         0.000000
   1918 C          24.8150   28.2446    0.0000 ca      1  GRA         0.000000
   1919 C          26.9420   27.0165    0.0000 ca      1  GRA         0.000000
   1920 C          27.6510   28.2446    0.0000 ca      1  GRA         0.000000
   1921 C          29.7780   27.0165    0.0000 ca      1  GRA         0.000000
   1922 C          29.0690   28.2446    0.0000 ca      1  GRA         0.000000
   1923 C          31.1960   27.0165    0.0000 ca      1  GRA         0.000000
   1924 C          31.9050   28.2446    0.0000 ca      1  GRA         0.000000
   1925 C          34.0320   27.0165    0.0000 ca      1  GRA         0.000000
   1926 C          33.3230   28.2446    0.0000 ca      1  GRA         0.000000
   1927 C          35.4500   27.0165    0.0000 ca      1  GRA         0.000000
   1928 C          36.1590   28.2446    0.0000 ca      1  GRA         0.000000
   1929 C          38.2860   27.0165    0.0000 ca      1  GRA         0.000000
   1930 C          37.5770   28.2446    0.0000 ca      1  GRA         0.000000
   1931 C          39.7040   27.0165    0.0000 ca      1  GRA         0.000000
   1932 C          40.4130   28.2446    0.0000 ca      1  GRA         0.000000
   1933 C          42.5400   27.0165    0.0000 ca      1  GRA         0.000000
   1934 C          41.8310   28.2446    0.0000 ca      1  GRA         0.000000
   1935 C          43.9580   27.0165    0.0000 ca      1  GRA         0.000000
   1936 C          44.6670   28.2446    0.0000 ca      1  GRA         0.000000
   1937 C          46.7940   27.0165    0.0000 ca      1  GRA         0.000000
   1938 C          46.0850   28.2446    0.0000 ca      1  GRA         0.000000
   1939 C          48.2120   27.0165    0.0000 ca      1  GRA         0.000000
   1940 C          48.9210   28.2446    0.0000 ca      1  GRA         0.000000
   1941 C          51.0480   27.0165    0.0000 ca      1  GRA         0.000000
   1942 C          50.3390   28.2446    0.0000 ca      1  GRA         0.000000
   1943 C          52.4660   27.0165    0.0000 ca      1  GRA         0.000000
   1944 C          53.1750   28.2446    0.0000 ca      1  GRA         0.000000
   1945 C          55.3020   27.0165    0.0000 ca      1  GRA         0.000000
   1946 C          54.5930   28.2446    0.0000 ca      1  GRA         0.000000
   1947 C          56.7200   27.0165    0.0000 ca      1  GRA         0.000000
   1948 C          57.4290   28.2446    0.0000 ca      1  GRA         0.000000
   1949 C          59.5560   27.0165    0.0000 ca      1  GRA         0.000000
   1950 C          58.8470   28.2446    0.0000 ca      1  GRA         0.000000
   1951 C          60.9740   27.0165    0.0000 ca      1  GRA         0.000000
   1952 C          61.6830   28.2446    0.0000 ca      1  GRA         0.000000
   1953 C          63.8100   27.0165    0.0000 ca      1  GRA         0.000000
   1954 C          63.1010   28.2446    0.0000 ca      1  GRA         0.000000
   1955 C          65.2280   27.0165    0.0000 ca      1  GRA         0.000000
   1956 C          65.9370   28.2446    0.0000 ca      1  GRA         0.000000
   1957 C          68.0640   27.0165    0.0000 ca      1  GRA         0.000000
   1958 C          67.3550   28.2446    0.0000 ca      1  GRA         0.000000
   1959 C          69.4820   27.0165    0.0000 ca      1  GRA         0.000000
   1960 C          70.1910   28.2446    0.0000 ca      1  GRA         0.000000
   1961 C          72.3180   27.0165    0.0000 ca      1  GRA         0.000000
   1962 C          71.6090   28.2446    0.0000 ca      1  GRA         0.000000
   1963 C          73.7360   27.0165    0.0000 ca      1  GRA         0.000000
   1964 C          74.4450   28.2446    0.0000 ca      1  GRA         0.000000
   1965 C          76.5720   27.0165    0.0000 ca      1  GRA         0.000000
   1966 C          75.8630   28.2446    0.0000 ca      1  GRA         0.000000
   1967 C          77.9900   27.0165    0.0000 ca      1  GRA         0.000000
   1968 C          78.6990   28.2446    0.0000 ca      1  GRA         0.000000
   1969 C          80.8260   27.0165    0.0000 ca      1  GRA         0.000000
   1970 C          80.1170   28.2446    0.0000 ca      1  GRA         0.000000
   1971 C          82.2440   27.0165    0.0000 ca      1  GRA         0.000000
   1972 C          82.9530   28.2446    0.0000 ca      1  GRA         0.000000
   1973 C          85.0800   27.0165    0.0000 ca      1  GRA         0.000000
   1974 C          84.3710   28.2446    0.0000 ca      1  GRA         0.000000
   1975 C          86.4980   27.0165    0.0000 ca      1  GRA         0.000000
   1976 C          87.2070   28.2446    0.0000 ca      1  GRA         0.000000
   1977 C          89.3340   27.0165    0.0000 ca      1  GRA         0.000000
   1978 C          88.6250   28.2446    0.0000 ca      1  GRA         0.000000
   1979 C          90.7520   27.0165    0.0000 ca      1  GRA         0.000000
   1980 C          91.4610   28.2446    0.0000 ca      1  GRA         0.000000
   1981 C          93.5880   27.0165    0.0000 ca      1  GRA         0.000000
   1982 C          92.8790   28.2446    0.0000 ca      1  GRA         0.000000
   1983 C          95.0060   27.0165    0.0000 ca      1  GRA         0.000000
   1984 C          95.7150   28.2446    0.0000 ca      1  GRA         0.000000
   1985 C          97.8420   27.0165    0.0000 ca      1  GRA         0.000000
   1986 C          97.1330   28.2446    0.0000 ca      1  GRA         0.000000
   1987 C          99.2600   27.0165    0.0000 ca      1  GRA         0.000000
   1988 C          99.9690   28.2446    0.0000 ca      1  GRA         0.000000
   1989 C         102.0960   27.0165    0.0000 ca      1  GRA         0.000000
   1990 C         101.3870   28.2446    0.0000 ca      1  GRA         0.000000
   1991 C         103.5140   27.0165    0.0000 ca      1  GRA         0.000000
   1992 C         104.2230   28.2446    0.0000 ca      1  GRA         0.000000
   1993 C         106.3500   27.0165    0.0000 ca      1  GRA         0.000000
   1994 C         105.6410   28.2446    0.0000 ca      1  GRA         0.000000
   1995 C         107.7680   27.0165    0.0000 ca      1  GRA         0.000000
   1996 C         108.4770   28.2446    0.0000 ca      1  GRA         0.000000
   1997 C         110.6040   27.0165    0.0000 ca      1  GRA         0.000000
   1998 C         109.8950   28.2446    0.0000 ca      1  GRA         0.000000
   1999 C         112.0220   27.0165    0.0000 ca      1  GRA         0.000000
   2000 C         112.7310   28.2446    0.0000 ca      1  GRA         0.000000
   2001 C         114.8580   27.0165    0.0000 ca      1  GRA         0.000000
   2002 C         114.1490   28.2446    0.0000 ca      1  GRA         0.000000
   2003 C         116.2760   27.0165    0.0000 ca      1  GRA         0.000000
   2004 C         116.9850   28.2446    0.0000 ca      1  GRA         0.000000
   2005 C         119.1120   27.0165    0.0000 ca      1  GRA         0.000000
   2006 C         118.4030   28.2446    0.0000 ca      1  GRA         0.000000
   2007 C         120.5300   27.0165    0.0000 ca      1  GRA         0.000000
   2008 C         121.2390   28.2446    0.0000 ca      1  GRA         0.000000
   2009 C         123.3660   27.0165    0.0000 ca      1  GRA         0.000000
   2010 C         122.6570   28.2446    0.0000 ca      1  GRA         0.000000
   2011 C         124.7840   27.0165    0.0000 ca      1  GRA         0.000000
   2012 C         125.4930   28.2446    0.0000 ca      1  GRA         0.000000
   2013 C         127.6200   27.0165    0.0000 ca      1  GRA         0.000000
   2014 C         126.9110   28.2446    0.0000 ca      1  GRA         0.000000
   2015 C         129.0380   27.0165    0.0000 ca      1  GRA         0.000000
   2016 C         129.7470   28.2446    0.0000 ca      1  GRA         0.000000
   2017 C         131.8740   27.0165    0.0000 ca      1  GRA         0.000000
   2018 C         131.1650   28.2446    0.0000 ca      1  GRA         0.000000
   2019 C         133.2920   27.0165    0.0000 ca      1  GRA         0.000000
   2020 C         134.0010   28.2446    0.0000 ca      1  GRA         0.000000
   2021 C         136.1280   27.0165    0.0000 ca      1  GRA         0.000000
   2022 C         135.4190   28.2446    0.0000 ca      1  GRA         0.000000
   2023 C         137.5460   27.0165    0.0000 ca      1  GRA         0.000000
   2024 C         138.2550   28.2446    0.0000 ca      1  GRA         0.000000
   2025 C         140.3820   27.0165    0.0000 ca      1  GRA         0.000000
   2026 C         139.6730   28.2446    0.0000 ca      1  GRA         0.000000
   2027 C         141.8000   27.0165    0.0000 ca      1  GRA         0.000000
   2028 C         142.5090   28.2446    0.0000 ca      1  GRA         0.000000
   2029 C         144.6360   27.0165    0.0000 ca      1  GRA         0.000000
   2030 C         143.9270   28.2446    0.0000 ca      1  GRA         0.000000
   2031 C         146.0540   27.0165    0.0000 ca      1  GRA         0.000000
   2032 C         146.7630   28.2446    0.0000 ca      1  GRA         0.000000
   2033 C         148.8900   27.0165    0.0000 ca      1  GRA         0.000000
   2034 C         148.1810   28.2446    0.0000 ca      1  GRA         0.000000
   2035 C         150.3080   27.0165    0.0000 ca      1  GRA         0.000000
   2036 C         151.0170   28.2446    0.0000 ca      1  GRA         0.000000
   2037 C         153.1440   27.0165    0.0000 ca      1  GRA         0.000000
   2038 C         152.4350   28.2446    0.0000 ca      1  GRA         0.000000
   2039 C         154.5620   27.0165    0.0000 ca      1  GRA         0.000000
   2040 C         155.2710   28.2446    0.0000 ca      1  GRA         0.000000
   2041 C         157.3980   27.0165    0.0000 ca      1  GRA         0.000000
   2042 C         156.6890   28.2446    0.0000 ca      1  GRA         0.000000
   2043 C         158.8160   27.0165    0.0000 ca      1  GRA         0.000000
   2044 C         159.5250   28.2446    0.0000 ca      1  GRA         0.000000
   2045 C         161.6520   27.0165    0.0000 ca      1  GRA         0.000000
   2046 C         160.9430   28.2446    0.0000 ca      1  GRA         0.000000
   2047 C         163.0700   27.0165    0.0000 ca      1  GRA         0.000000
   2048 C         163.7790   28.2446    0.0000 ca      1  GRA         0.000000
   2049 C         165.9060   27.0165    0.0000 ca      1  GRA         0.000000
   2050 C         165.1970   28.2446    0.0000 ca      1  GRA         0.000000
   2051 C         167.3240   27.0165    0.0000 ca      1  GRA         0.000000
   2052 C         168.0330   28.2446    0.0000 ca      1  GRA         0.000000
   2053 C         170.1600   27.0165    0.0000 ca      1  GRA         0.000000
   2054 C         169.4510   28.2446    0.0000 ca      1  GRA         0.000000
   2055 C         171.5780   27.0165    0.0000 ca      1  GRA         0.000000
   2056 C         172.2870   28.2446    0.0000 ca      1  GRA         0.000000
   2057 C         174.4140   27.0165    0.0000 ca      1  GRA         0.000000
   2058 C         173.7050   28.2446    0.0000 ca      1  GRA         0.000000
   2059 C         175.8320   27.0165    0.0000 ca      1  GRA         0.000000
   2060 C         176.5410   28.2446    0.0000 ca      1  GRA         0.000000
   2061 C         178.6680   27.0165    0.0000 ca      1  GRA         0.000000
   2062 C         177.9590   28.2446    0.0000 ca      1  GRA         0.000000
   2063 C         180.0860   27.0165    0.0000 ca      1  GRA         0.000000
   2064 C         180.7950   28.2446    0.0000 ca      1  GRA         0.000000
   2065 C           0.0000   29.4726    0.0000 ca      1  GRA         0.000000
   2066 C          -0.7090   30.7006    0.0000 ca      1  GRA         0.000000
   2067 C           1.4180   29.4726    0.0000 ca      1  GRA         0.000000
   2068 C           2.1270   30.7006    0.0000 ca      1  GRA         0.000000
   2069 C           4.2540   29.4726    0.0000 ca      1  GRA         0.000000
   2070 C           3.5450   30.7006    0.0000 ca      1  GRA         0.000000
   2071 C           5.6720   29.4726    0.0000 ca      1  GRA         0.000000
   2072 C           6.3810   30.7006    0.0000 ca      1  GRA         0.000000
   2073 C           8.5080   29.4726    0.0000 ca      1  GRA         0.000000
   2074 C           7.7990   30.7006    0.0000 ca      1  GRA         0.000000
   2075 C           9.9260   29.4726    0.0000 ca      1  GRA         0.000000
   2076 C          10.6350   30.7006    0.0000 ca      1  GRA         0.000000
   2077 C          12.7620   29.4726    0.0000 ca      1  GRA         0.000000
   2078 C          12.0530   30.7006    0.0000 ca      1  GRA         0.000000
   2079 C          14.1800   29.4726    0.0000 ca      1  GRA         0.000000
   2080 C          14.8890   30.7006    0.0000 ca      1  GRA         0.000000
   2081 C          17.0160   29.4726    0.0000 ca      1  GRA         0.000000
   2082 C          16.3070   30.7006    0.0000 ca      1  GRA         0.000000
   2083 C          18.4340   29.4726    0.0000 ca      1  GRA         0.000000
   2084 C          19.1430   30.7006    0.0000 ca      1  GRA         0.000000
   2085 C          21.2700   29.4726    0.0000 ca      1  GRA         0.000000
   2086 C          20.5610   30.7006    0.0000 ca      1  GRA         0.000000
   2087 C          22.6880   29.4726    0.0000 ca      1  GRA         0.000000
   2088 C          23.3970   30.7006    0.0000 ca      1  GRA         0.000000
   2089 C          25.5240   29.4726    0.0000 ca      1  GRA         0.000000
   2090 C          24.8150   30.7006    0.0000 ca      1  GRA         0.000000
   2091 C          26.9420   29.4726    0.0000 ca      1  GRA         0.000000
   2092 C          27.6510   30.7006    0.0000 ca      1  GRA         0.000000
   2093 C          29.7780   29.4726    0.0000 ca      1  GRA         0.000000
   2094 C          29.0690   30.7006    0.0000 ca      1  GRA         0.000000
   2095 C          31.1960   29.4726    0.0000 ca      1  GRA         0.000000
   2096 C          31.9050   30.7006    0.0000 ca      1  GRA         0.000000
   2097 C          34.0320   29.4726    0.0000 ca      1  GRA         0.000000
   2098 C          33.3230   30.7006    0.0000 ca      1  GRA         0.000000
   2099 C          35.4500   29.4726    0.0000 ca      1  GRA         0.000000
   2100 C          36.1590   30.7006    0.0000 ca      1  GRA         0.000000
   2101 C          38.2860   29.4726    0.0000 ca      1  GRA         0.000000
   2102 C          37.5770   30.7006    0.0000 ca      1  GRA         0.000000
   2103 C          39.7040   29.4726    0.0000 ca      1  GRA         0.000000
   2104 C          40.4130   30.7006    0.0000 ca      1  GRA         0.000000
   2105 C          42.5400   29.4726    0.0000 ca      1  GRA         0.000000
   2106 C          41.8310   30.7006    0.0000 ca      1  GRA         0.000000
   2107 C          43.9580   29.4726    0.0000 ca      1  GRA         0.000000
   2108 C          44.6670   30.7006    0.0000 ca      1  GRA         0.000000
   2109 C          46.7940   29.4726    0.0000 ca      1  GRA         0.000000
   2110 C          46.0850   30.7006    0.0000 ca      1  GRA         0.000000
   2111 C          48.2120   29.4726    0.0000 ca      1  GRA         0.000000
   2112 C          48.9210   30.7006    0.0000 ca      1  GRA         0.000000
   2113 C          51.0480   29.4726    0.0000 ca      1  GRA         0.000000
   2114 C          50.3390   30.7006    0.0000 ca      1  GRA         0.000000
   2115 C          52.4660   29.4726    0.0000 ca      1  GRA         0.000000
   2116 C          53.1750   30.7006    0.0000 ca      1  GRA         0.000000
   2117 C          55.3020   29.4726    0.0000 ca      1  GRA         0.000000
   2118 C          54.5930   30.7006    0.0000 ca      1  GRA         0.000000
   2119 C          56.7200   29.4726    0.0000 ca      1  GRA         0.000000
   2120 C          57.4290   30.7006    0.0000 ca      1  GRA         0.000000
   2121 C          59.5560   29.4726    0.0000 ca      1  GRA         0.000000
   2122 C          58.8470   30.7006    0.0000 ca      1  GRA         0.000000
   2123 C          60.9740   29.4726    0.0000 ca      1  GRA         0.000000
   2124 C          61.6830   30.7006    0.0000 ca      1  GRA         0.000000
   2125 C          63.8100   29.4726    0.0000 ca      1  GRA         0.000000
   2126 C          63.1010   30.7006    0.0000 ca      1  GRA         0.000000
   2127 C          65.2280   29.4726    0.0000 ca      1  GRA         0.000000
   2128 C          65.9370   30.7006    0.0000 ca      1  GRA         0.000000
   2129 C          68.0640   29.4726    0.0000 ca      1  GRA         0.000000
   2130 C          67.3550   30.7006    0.0000 ca      1  GRA         0.000000
   2131 C          69.4820   29.4726    0.0000 ca      1  GRA         0.000000
   2132 C          70.1910   30.7006    0.0000 ca      1  GRA         0.000000
   2133 C          72.3180   29.4726    0.0000 ca      1  GRA         0.000000
   2134 C          71.6090   30.7006    0.0000 ca      1  GRA         0.000000
   2135 C          73.7360   29.4726    0.0000 ca      1  GRA         0.000000
   2136 C          74.4450   30.7006    0.0000 ca      1  GRA         0.000000
   2137 C          76.5720   29.4726    0.0000 ca      1  GRA         0.000000
   2138 C          75.8630   30.7006    0.0000 ca      1  GRA         0.000000
   2139 C          77.9900   29.4726    0.0000 ca      1  GRA         0.000000
   2140 C          78.6990   30.7006    0.0000 ca      1  GRA         0.000000
   2141 C          80.8260   29.4726    0.0000 ca      1  GRA         0.000000
   2142 C          80.1170   30.7006    0.0000 ca      1  GRA         0.000000
   2143 C          82.2440   29.4726    0.0000 ca      1  GRA         0.000000
   2144 C          82.9530   30.7006    0.0000 ca      1  GRA         0.000000
   2145 C          85.0800   29.4726    0.0000 ca      1  GRA         0.000000
   2146 C          84.3710   30.7006    0.0000 ca      1  GRA         0.000000
   2147 C          86.4980   29.4726    0.0000 ca      1  GRA         0.000000
   2148 C          87.2070   30.7006    0.0000 ca      1  GRA         0.000000
   2149 C          89.3340   29.4726    0.0000 ca      1  GRA         0.000000
   2150 C          88.6250   30.7006    0.0000 ca      1  GRA         0.000000
   2151 C          90.7520   29.4726    0.0000 ca      1  GRA         0.000000
   2152 C          91.4610   30.7006    0.0000 ca      1  GRA         0.000000
   2153 C          93.5880   29.4726    0.0000 ca      1  GRA         0.000000
   2154 C          92.8790   30.7006    0.0000 ca      1  GRA         0.000000
   2155 C          95.0060   29.4726    0.0000 ca      1  GRA         0.000000
   2156 C          95.7150   30.7006    0.0000 ca      1  GRA         0.000000
   2157 C          97.8420   29.4726    0.0000 ca      1  GRA         0.000000
   2158 C          97.1330   30.7006    0.0000 ca      1  GRA         0.000000
   2159 C          99.2600   29.4726    0.0000 ca      1  GRA         0.000000
   2160 C          99.9690   30.7006    0.0000 ca      1  GRA         0.000000
   2161 C         102.0960   29.4726    0.0000 ca      1  GRA         0.000000
   2162 C         101.3870   30.7006    0.0000 ca      1  GRA         0.000000
   2163 C         103.5140   29.4726    0.0000 ca      1  GRA         0.000000
   2164 C         104.2230   30.7006    0.0000 ca      1  GRA         0.000000
   2165 C         106.3500   29.4726    0.0000 ca      1  GRA         0.000000
   2166 C         105.6410   30.7006    0.0000 ca      1  GRA         0.000000
   2167 C         107.7680   29.4726    0.0000 ca      1  GRA         0.000000
   2168 C         108.4770   30.7006    0.0000 ca      1  GRA         0.000000
   2169 C         110.6040   29.4726    0.0000 ca      1  GRA         0.000000
   2170 C         109.8950   30.7006    0.0000 ca      1  GRA         0.000000
   2171 C         112.0220   29.4726    0.0000 ca      1  GRA         0.000000
   2172 C         112.7310   30.7006    0.0000 ca      1  GRA         0.000000
   2173 C         114.8580   29.4726    0.0000 ca      1  GRA         0.000000
   2174 C         114.1490   30.7006    0.0000 ca      1  GRA         0.000000
   2175 C         116.2760   29.4726    0.0000 ca      1  GRA         0.000000
   2176 C         116.9850   30.7006    0.0000 ca      1  GRA         0.000000
   2177 C         119.1120   29.4726    0.0000 ca      1  GRA         0.000000
   2178 C         118.4030   30.7006    0.0000 ca      1  GRA         0.000000
   2179 C         120.5300   29.4726    0.0000 ca      1  GRA         0.000000
   2180 C         121.2390   30.7006    0.0000 ca      1  GRA         0.000000
   2181 C         123.3660   29.4726    0.0000 ca      1  GRA         0.000000
   2182 C         122.6570   30.7006    0.0000 ca      1  GRA         0.000000
   2183 C         124.7840   29.4726    0.0000 ca      1  GRA         0.000000
   2184 C         125.4930   30.7006    0.0000 ca      1  GRA         0.000000
   2185 C         127.6200   29.4726    0.0000 ca      1  GRA         0.000000
   2186 C         126.9110   30.7006    0.0000 ca      1  GRA         0.000000
   2187 C         129.0380   29.4726    0.0000 ca      1  GRA         0.000000
   2188 C         129.7470   30.7006    0.0000 ca      1  GRA         0.000000
   2189 C         131.8740   29.4726    0.0000 ca      1  GRA         0.000000
   2190 C         131.1650   30.7006    0.0000 ca      1  GRA         0.000000
   2191 C         133.2920   29.4726    0.0000 ca      1  GRA         0.000000
   2192 C         134.0010   30.7006    0.0000 ca      1  GRA         0.000000
   2193 C         136.1280   29.4726    0.0000 ca      1  GRA         0.000000
   2194 C         135.4190   30.7006    0.0000 ca      1  GRA         0.000000
   2195 C         137.5460   29.4726    0.0000 ca      1  GRA         0.000000
   2196 C         138.2550   30.7006    0.0000 ca      1  GRA         0.000000
   2197 C         140.3820   29.4726    0.0000 ca      1  GRA         0.000000
   2198 C         139.6730   30.7006    0.0000 ca      1  GRA         0.000000
   2199 C         141.8000   29.4726    0.0000 ca      1  GRA         0.000000
   2200 C         142.5090   30.7006    0.0000 ca      1  GRA         0.000000
   2201 C         144.6360   29.4726    0.0000 ca      1  GRA         0.000000
   2202 C         143.9270   30.7006    0.0000 ca      1  GRA         0.000000
   2203 C         146.0540   29.4726    0.0000 ca      1  GRA         0.000000
   2204 C         146.7630   30.7006    0.0000 ca      1  GRA         0.000000
   2205 C         148.8900   29.4726    0.0000 ca      1  GRA         0.000000
   2206 C         148.1810   30.7006    0.0000 ca      1  GRA         0.000000
   2207 C         150.3080   29.4726    0.0000 ca      1  GRA         0.000000
   2208 C         151.0170   30.7006    0.0000 ca      1  GRA         0.000000
   2209 C         153.1440   29.4726    0.0000 ca      1  GRA         0.000000
   2210 C         152.4350   30.7006    0.0000 ca      1  GRA         0.000000
   2211 C         154.5620   29.4726    0.0000 ca      1  GRA         0.000000
   2212 C         155.2710   30.7006    0.0000 ca      1  GRA         0.000000
   2213 C         157.3980   29.4726    0.0000 ca      1  GRA         0.000000
   2214 C         156.6890   30.7006    0.0000 ca      1  GRA         0.000000
   2215 C         158.8160   29.4726    0.0000 ca      1  GRA         0.000000
   2216 C         159.5250   30.7006    0.0000 ca      1  GRA         0.000000
   2217 C         161.6520   29.4726    0.0000 ca      1  GRA         0.000000
   2218 C         160.9430   30.7006    0.0000 ca      1  GRA         0.000000
   2219 C         163.0700   29.4726    0.0000 ca      1  GRA         0.000000
   2220 C         163.7790   30.7006    0.0000 ca      1  GRA         0.000000
   2221 C         165.9060   29.4726    0.0000 ca      1  GRA         0.000000
   2222 C         165.1970   30.7006    0.0000 ca      1  GRA         0.000000
   2223 C         167.3240   29.4726    0.0000 ca      1  GRA         0.000000
   2224 C         168.0330   30.7006    0.0000 ca      1  GRA         0.000000
   2225 C         170.1600   29.4726    0.0000 ca      1  GRA         0.000000
   2226 C         169.4510   30.7006    0.0000 ca      1  GRA         0.000000
   2227 C         171.5780   29.4726    0.0000 ca      1  GRA         0.000000
   2228 C         172.2870   30.7006    0.0000 ca      1  GRA         0.000000
   2229 C         174.4140   29.4726    0.0000 ca      1  GRA         0.000000
   2230 C         173.7050   30.7006    0.0000 ca      1  GRA         0.000000
   2231 C         175.8320   29.4726    0.0000 ca      1  GRA         0.000000
   2232 C         176.5410   30.7006    0.0000 ca      1  GRA         0.000000
   2233 C         178.6680   29.4726    0.0000 ca      1  GRA         0.000000
   2234 C         177.9590   30.7006    0.0000 ca      1  GRA         0.000000
   2235 C         180.0860   29.4726    0.0000 ca      1  GRA         0.000000
   2236 C         180.7950   30.7006    0.0000 ca      1  GRA         0.000000
   2237 C           0.0000   31.9286    0.0000 ca      1  GRA         0.000000
   2238 C          -0.7090   33.1566    0.0000 ca      1  GRA         0.000000
   2239 C           1.4180   31.9286    0.0000 ca      1  GRA         0.000000
   2240 C           2.1270   33.1566    0.0000 ca      1  GRA         0.000000
   2241 C           4.2540   31.9286    0.0000 ca      1  GRA         0.000000
   2242 C           3.5450   33.1566    0.0000 ca      1  GRA         0.000000
   2243 C           5.6720   31.9286    0.0000 ca      1  GRA         0.000000
   2244 C           6.3810   33.1566    0.0000 ca      1  GRA         0.000000
   2245 C           8.5080   31.9286    0.0000 ca      1  GRA         0.000000
   2246 C           7.7990   33.1566    0.0000 ca      1  GRA         0.000000
   2247 C           9.9260   31.9286    0.0000 ca      1  GRA         0.000000
   2248 C          10.6350   33.1566    0.0000 ca      1  GRA         0.000000
   2249 C          12.7620   31.9286    0.0000 ca      1  GRA         0.000000
   2250 C          12.0530   33.1566    0.0000 ca      1  GRA         0.000000
   2251 C          14.1800   31.9286    0.0000 ca      1  GRA         0.000000
   2252 C          14.8890   33.1566    0.0000 ca      1  GRA         0.000000
   2253 C          17.0160   31.9286    0.0000 ca      1  GRA         0.000000
   2254 C          16.3070   33.1566    0.0000 ca      1  GRA         0.000000
   2255 C          18.4340   31.9286    0.0000 ca      1  GRA         0.000000
   2256 C          19.1430   33.1566    0.0000 ca      1  GRA         0.000000
   2257 C          21.2700   31.9286    0.0000 ca      1  GRA         0.000000
   2258 C          20.5610   33.1566    0.0000 ca      1  GRA         0.000000
   2259 C          22.6880   31.9286    0.0000 ca      1  GRA         0.000000
   2260 C          23.3970   33.1566    0.0000 ca      1  GRA         0.000000
   2261 C          25.5240   31.9286    0.0000 ca      1  GRA         0.000000
   2262 C          24.8150   33.1566    0.0000 ca      1  GRA         0.000000
   2263 C          26.9420   31.9286    0.0000 ca      1  GRA         0.000000
   2264 C          27.6510   33.1566    0.0000 ca      1  GRA         0.000000
   2265 C          29.7780   31.9286    0.0000 ca      1  GRA         0.000000
   2266 C          29.0690   33.1566    0.0000 ca      1  GRA         0.000000
   2267 C          31.1960   31.9286    0.0000 ca      1  GRA         0.000000
   2268 C          31.9050   33.1566    0.0000 ca      1  GRA         0.000000
   2269 C          34.0320   31.9286    0.0000 ca      1  GRA         0.000000
   2270 C          33.3230   33.1566    0.0000 ca      1  GRA         0.000000
   2271 C          35.4500   31.9286    0.0000 ca      1  GRA         0.000000
   2272 C          36.1590   33.1566    0.0000 ca      1  GRA         0.000000
   2273 C          38.2860   31.9286    0.0000 ca      1  GRA         0.000000
   2274 C          37.5770   33.1566    0.0000 ca      1  GRA         0.000000
   2275 C          39.7040   31.9286    0.0000 ca      1  GRA         0.000000
   2276 C          40.4130   33.1566    0.0000 ca      1  GRA         0.000000
   2277 C          42.5400   31.9286    0.0000 ca      1  GRA         0.000000
   2278 C          41.8310   33.1566    0.0000 ca      1  GRA         0.000000
   2279 C          43.9580   31.9286    0.0000 ca      1  GRA         0.000000
   2280 C          44.6670   33.1566    0.0000 ca      1  GRA         0.000000
   2281 C          46.7940   31.9286    0.0000 ca      1  GRA         0.000000
   2282 C          46.0850   33.1566    0.0000 ca      1  GRA         0.000000
   2283 C          48.2120   31.9286    0.0000 ca      1  GRA         0.000000
   2284 C          48.9210   33.1566    0.0000 ca      1  GRA         0.000000
   2285 C          51.0480   31.9286    0.0000 ca      1  GRA         0.000000
   2286 C          50.3390   33.1566    0.0000 ca      1  GRA         0.000000
   2287 C          52.4660   31.9286    0.0000 ca      1  GRA         0.000000
   2288 C          53.1750   33.1566    0.0000 ca      1  GRA         0.000000
   2289 C          55.3020   31.9286    0.0000 ca      1  GRA         0.000000
   2290 C          54.5930   33.1566    0.0000 ca      1  GRA         0.000000
   2291 C          56.7200   31.9286    0.0000 ca      1  GRA         0.000000
   2292 C          57.4290   33.1566    0.0000 ca      1  GRA         0.000000
   2293 C          59.5560   31.9286    0.0000 ca      1  GRA         0.000000
   2294 C          58.8470   33.1566    0.0000 ca      1  GRA         0.000000
   2295 C          60.9740   31.9286    0.0000 ca      1  GRA         0.000000
   2296 C          61.6830   33.1566    0.0000 ca      1  GRA         0.000000
   2297 C          63.8100   31.9286    0.0000 ca      1  GRA         0.000000
   2298 C          63.1010   33.1566    0.0000 ca      1  GRA         0.000000
   2299 C          65.2280   31.9286    0.0000 ca      1  GRA         0.000000
   2300 C          65.9370   33.1566    0.0000 ca      1  GRA         0.000000
   2301 C          68.0640   31.9286    0.0000 ca      1  GRA         0.000000
   2302 C          67.3550   33.1566    0.0000 ca      1  GRA         0.000000
   2303 C          69.4820   31.9286    0.0000 ca      1  GRA         0.000000
   2304 C          70.1910   33.1566    0.0000 ca      1  GRA         0.000000
   2305 C          72.3180   31.9286    0.0000 ca      1  GRA         0.000000
   2306 C          71.6090   33.1566    0.0000 ca      1  GRA         0.000000
   2307 C          73.7360   31.9286    0.0000 ca      1  GRA         0.000000
   2308 C          74.4450   33.1566    0.0000 ca      1  GRA         0.000000
   2309 C          76.5720   31.9286    0.0000 ca      1  GRA         0.000000
   2310 C          75.8630   33.1566    0.0000 ca      1  GRA         0.000000
   2311 C          77.9900   31.9286    0.0000 ca      1  GRA         0.000000
   2312 C          78.6990   33.1566    0.0000 ca      1  GRA         0.000000
   2313 C          80.8260   31.9286    0.0000 ca      1  GRA         0.000000
   2314 C          80.1170   33.1566    0.0000 ca      1  GRA         0.000000
   2315 C          82.2440   31.9286    0.0000 ca      1  GRA         0.000000
   2316 C          82.9530   33.1566    0.0000 ca      1  GRA         0.000000
   2317 C          85.0800   31.9286    0.0000 ca      1  GRA         0.000000
   2318 C          84.3710   33.1566    0.0000 ca      1  GRA         0.000000
   2319 C          86.4980   31.9286    0.0000 ca      1  GRA         0.000000
   2320 C          87.2070   33.1566    0.0000 ca      1  GRA         0.000000
   2321 C          89.3340   31.9286    0.0000 ca      1  GRA         0.000000
   2322 C          88.6250   33.1566    0.0000 ca      1  GRA         0.000000
   2323 C          90.7520   31.9286    0.0000 ca      1  GRA         0.000000
   2324 C          91.4610   33.1566    0.0000 ca      1  GRA         0.000000
   2325 C          93.5880   31.9286    0.0000 ca      1  GRA         0.000000
   2326 C          92.8790   33.1566    0.0000 ca      1  GRA         0.000000
   2327 C          95.0060   31.9286    0.0000 ca      1  GRA         0.000000
   2328 C          95.7150   33.1566    0.0000 ca      1  GRA         0.000000
   2329 C          97.8420   31.9286    0.0000 ca      1  GRA         0.000000
   2330 C          97.1330   33.1566    0.0000 ca      1  GRA         0.000000
   2331 C          99.2600   31.9286    0.0000 ca      1  GRA         0.000000
   2332 C          99.9690   33.1566    0.0000 ca      1  GRA         0.000000
   2333 C         102.0960   31.9286    0.0000 ca      1  GRA         0.000000
   2334 C         101.3870   33.1566    0.0000 ca      1  GRA         0.000000
   2335 C         103.5140   31.9286    0.0000 ca      1  GRA         0.000000
   2336 C         104.2230   33.1566    0.0000 ca      1  GRA         0.000000
   2337 C         106.3500   31.9286    0.0000 ca      1  GRA         0.000000
   2338 C         105.6410   33.1566    0.0000 ca      1  GRA         0.000000
   2339 C         107.7680   31.9286    0.0000 ca      1  GRA         0.000000
   2340 C         108.4770   33.1566    0.0000 ca      1  GRA         0.000000
   2341 C         110.6040   31.9286    0.0000 ca      1  GRA         0.000000
   2342 C         109.8950   33.1566    0.0000 ca      1  GRA         0.000000
   2343 C         112.0220   31.9286    0.0000 ca      1  GRA         0.000000
   2344 C         112.7310   33.1566    0.0000 ca      1  GRA         0.000000
   2345 C         114.8580   31.9286    0.0000 ca      1  GRA         0.000000
   2346 C         114.1490   33.1566    0.0000 ca      1  GRA         0.000000
   2347 C         116.2760   31.9286    0.0000 ca      1  GRA         0.000000
   2348 C         116.9850   33.1566    0.0000 ca      1  GRA         0.000000
   2349 C         119.1120   31.9286    0.0000 ca      1  GRA         0.000000
   2350 C         118.4030   33.1566    0.0000 ca      1  GRA         0.000000
   2351 C         120.5300   31.9286    0.0000 ca      1  GRA         0.000000
   2352 C         121.2390   33.1566    0.0000 ca      1  GRA         0.000000
   2353 C         123.3660   31.9286    0.0000 ca      1  GRA         0.000000
   2354 C         122.6570   33.1566    0.0000 ca      1  GRA         0.000000
   2355 C         124.7840   31.9286    0.0000 ca      1  GRA         0.000000
   2356 C         125.4930   33.1566    0.0000 ca      1  GRA         0.000000
   2357 C         127.6200   31.9286    0.0000 ca      1  GRA         0.000000
   2358 C         126.9110   33.1566    0.0000 ca      1  GRA         0.000000
   2359 C         129.0380   31.9286    0.0000 ca      1  GRA         0.000000
   2360 C         129.7470   33.1566    0.0000 ca      1  GRA         0.000000
   2361 C         131.8740   31.9286    0.0000 ca      1  GRA         0.000000
   2362 C         131.1650   33.1566    0.0000 ca      1  GRA         0.000000
   2363 C         133.2920   31.9286    0.0000 ca      1  GRA         0.000000
   2364 C         134.0010   33.1566    0.0000 ca      1  GRA         0.000000
   2365 C         136.1280   31.9286    0.0000 ca      1  GRA         0.000000
   2366 C         135.4190   33.1566    0.0000 ca      1  GRA         0.000000
   2367 C         137.5460   31.9286    0.0000 ca      1  GRA         0.000000
   2368 C         138.2550   33.1566    0.0000 ca      1  GRA         0.000000
   2369 C         140.3820   31.9286    0.0000 ca      1  GRA         0.000000
   2370 C         139.6730   33.1566    0.0000 ca      1  GRA         0.000000
   2371 C         141.8000   31.9286    0.0000 ca      1  GRA         0.000000
   2372 C         142.5090   33.1566    0.0000 ca      1  GRA         0.000000
   2373 C         144.6360   31.9286    0.0000 ca      1  GRA         0.000000
   2374 C         143.9270   33.1566    0.0000 ca      1  GRA         0.000000
   2375 C         146.0540   31.9286    0.0000 ca      1  GRA         0.000000
   2376 C         146.7630   33.1566    0.0000 ca      1  GRA         0.000000
   2377 C         148.8900   31.9286    0.0000 ca      1  GRA         0.000000
   2378 C         148.1810   33.1566    0.0000 ca      1  GRA         0.000000
   2379 C         150.3080   31.9286    0.0000 ca      1  GRA         0.000000
   2380 C         151.0170   33.1566    0.0000 ca      1  GRA         0.000000
   2381 C         153.1440   31.9286    0.0000 ca      1  GRA         0.000000
   2382 C         152.4350   33.1566    0.0000 ca      1  GRA         0.000000
   2383 C         154.5620   31.9286    0.0000 ca      1  GRA         0.000000
   2384 C         155.2710   33.1566    0.0000 ca      1  GRA         0.000000
   2385 C         157.3980   31.9286    0.0000 ca      1  GRA         0.000000
   2386 C         156.6890   33.1566    0.0000 ca      1  GRA         0.000000
   2387 C         158.8160   31.9286    0.0000 ca      1  GRA         0.000000
   2388 C         159.5250   33.1566    0.0000 ca      1  GRA         0.000000
   2389 C         161.6520   31.9286    0.0000 ca      1  GRA         0.000000
   2390 C         160.9430   33.1566    0.0000 ca      1  GRA         0.000000
   2391 C         163.0700   31.9286    0.0000 ca      1  GRA         0.000000
   2392 C         163.7790   33.1566    0.0000 ca      1  GRA         0.000000
   2393 C         165.9060   31.9286    0.0000 ca      1  GRA         0.000000
   2394 C         165.1970   33.1566    0.0000 ca      1  GRA         0.000000
   2395 C         167.3240   31.9286    0.0000 ca      1  GRA         0.000000
   2396 C         168.0330   33.1566    0.0000 ca      1  GRA         0.000000
   2397 C         170.1600   31.9286    0.0000 ca      1  GRA         0.000000
   2398 C         169.4510   33.1566    0.0000 ca      1  GRA         0.000000
   2399 C         171.5780   31.9286    0.0000 ca      1  GRA         0.000000
   2400 C         172.2870   33.1566    0.0000 ca      1  GRA         0.000000
   2401 C         174.4140   31.9286    0.0000 ca      1  GRA         0.000000
   2402 C         173.7050   33.1566    0.0000 ca      1  GRA         0.000000
   2403 C         175.8320   31.9286    0.0000 ca      1  GRA         0.000000
   2404 C         176.5410   33.1566    0.0000 ca      1  GRA         0.000000
   2405 C         178.6680   31.9286    0.0000 ca      1  GRA         0.000000
   2406 C         177.9590   33.1566    0.0000 ca      1  GRA         0.000000
   2407 C         180.0860   31.9286    0.0000 ca      1  GRA         0.000000
   2408 C         180.7950   33.1566    0.0000 ca      1  GRA         0.000000
   2409 C           0.0000   34.3847    0.0000 ca      1  GRA         0.000000
   2410 C          -0.7090   35.6127    0.0000 ca      1  GRA         0.000000
   2411 C           1.4180   34.3847    0.0000 ca      1  GRA         0.000000
   2412 C           2.1270   35.6127    0.0000 ca      1  GRA         0.000000
   2413 C           4.2540   34.3847    0.0000 ca      1  GRA         0.000000
   2414 C           3.5450   35.6127    0.0000 ca      1  GRA         0.000000
   2415 C           5.6720   34.3847    0.0000 ca      1  GRA         0.000000
   2416 C           6.3810   35.6127    0.0000 ca      1  GRA         0.000000
   2417 C           8.5080   34.3847    0.0000 ca      1  GRA         0.000000
   2418 C           7.7990   35.6127    0.0000 ca      1  GRA         0.000000
   2419 C           9.9260   34.3847    0.0000 ca      1  GRA         0.000000
   2420 C          10.6350   35.6127    0.0000 ca      1  GRA         0.000000
   2421 C          12.7620   34.3847    0.0000 ca      1  GRA         0.000000
   2422 C          12.0530   35.6127    0.0000 ca      1  GRA         0.000000
   2423 C          14.1800   34.3847    0.0000 ca      1  GRA         0.000000
   2424 C          14.8890   35.6127    0.0000 ca      1  GRA         0.000000
   2425 C          17.0160   34.3847    0.0000 ca      1  GRA         0.000000
   2426 C          16.3070   35.6127    0.0000 ca      1  GRA         0.000000
   2427 C          18.4340   34.3847    0.0000 ca      1  GRA         0.000000
   2428 C          19.1430   35.6127    0.0000 ca      1  GRA         0.000000
   2429 C          21.2700   34.3847    0.0000 ca      1  GRA         0.000000
   2430 C          20.5610   35.6127    0.0000 ca      1  GRA         0.000000
   2431 C          22.6880   34.3847    0.0000 ca      1  GRA         0.000000
   2432 C          23.3970   35.6127    0.0000 ca      1  GRA         0.000000
   2433 C          25.5240   34.3847    0.0000 ca      1  GRA         0.000000
   2434 C          24.8150   35.6127    0.0000 ca      1  GRA         0.000000
   2435 C          26.9420   34.3847    0.0000 ca      1  GRA         0.000000
   2436 C          27.6510   35.6127    0.0000 ca      1  GRA         0.000000
   2437 C          29.7780   34.3847    0.0000 ca      1  GRA         0.000000
   2438 C          29.0690   35.6127    0.0000 ca      1  GRA         0.000000
   2439 C          31.1960   34.3847    0.0000 ca      1  GRA         0.000000
   2440 C          31.9050   35.6127    0.0000 ca      1  GRA         0.000000
   2441 C          34.0320   34.3847    0.0000 ca      1  GRA         0.000000
   2442 C          33.3230   35.6127    0.0000 ca      1  GRA         0.000000
   2443 C          35.4500   34.3847    0.0000 ca      1  GRA         0.000000
   2444 C          36.1590   35.6127    0.0000 ca      1  GRA         0.000000
   2445 C          38.2860   34.3847    0.0000 ca      1  GRA         0.000000
   2446 C          37.5770   35.6127    0.0000 ca      1  GRA         0.000000
   2447 C          39.7040   34.3847    0.0000 ca      1  GRA         0.000000
   2448 C          40.4130   35.6127    0.0000 ca      1  GRA         0.000000
   2449 C          42.5400   34.3847    0.0000 ca      1  GRA         0.000000
   2450 C          41.8310   35.6127    0.0000 ca      1  GRA         0.000000
   2451 C          43.9580   34.3847    0.0000 ca      1  GRA         0.000000
   2452 C          44.6670   35.6127    0.0000 ca      1  GRA         0.000000
   2453 C          46.7940   34.3847    0.0000 ca      1  GRA         0.000000
   2454 C          46.0850   35.6127    0.0000 ca      1  GRA         0.000000
   2455 C          48.2120   34.3847    0.0000 ca      1  GRA         0.000000
   2456 C          48.9210   35.6127    0.0000 ca      1  GRA         0.000000
   2457 C          51.0480   34.3847    0.0000 ca      1  GRA         0.000000
   2458 C          50.3390   35.6127    0.0000 ca      1  GRA         0.000000
   2459 C          52.4660   34.3847    0.0000 ca      1  GRA         0.000000
   2460 C          53.1750   35.6127    0.0000 ca      1  GRA         0.000000
   2461 C          55.3020   34.3847    0.0000 ca      1  GRA         0.000000
   2462 C          54.5930   35.6127    0.0000 ca      1  GRA         0.000000
   2463 C          56.7200   34.3847    0.0000 ca      1  GRA         0.000000
   2464 C          57.4290   35.6127    0.0000 ca      1  GRA         0.000000
   2465 C          59.5560   34.3847    0.0000 ca      1  GRA         0.000000
   2466 C          58.8470   35.6127    0.0000 ca      1  GRA         0.000000
   2467 C          60.9740   34.3847    0.0000 ca      1  GRA         0.000000
   2468 C          61.6830   35.6127    0.0000 ca      1  GRA         0.000000
   2469 C          63.8100   34.3847    0.0000 ca      1  GRA         0.000000
   2470 C          63.1010   35.6127    0.0000 ca      1  GRA         0.000000
   2471 C          65.2280   34.3847    0.0000 ca      1  GRA         0.000000
   2472 C          65.9370   35.6127    0.0000 ca      1  GRA         0.000000
   2473 C          68.0640   34.3847    0.0000 ca      1  GRA         0.000000
   2474 C          67.3550   35.6127    0.0000 ca      1  GRA         0.000000
   2475 C          69.4820   34.3847    0.0000 ca      1  GRA         0.000000
   2476 C          70.1910   35.6127    0.0000 ca      1  GRA         0.000000
   2477 C          72.3180   34.3847    0.0000 ca      1  GRA         0.000000
   2478 C          71.6090   35.6127    0.0000 ca      1  GRA         0.000000
   2479 C          73.7360   34.3847    0.0000 ca      1  GRA         0.000000
   2480 C          74.4450   35.6127    0.0000 ca      1  GRA         0.000000
   2481 C          76.5720   34.3847    0.0000 ca      1  GRA         0.000000
   2482 C          75.8630   35.6127    0.0000 ca      1  GRA         0.000000
   2483 C          77.9900   34.3847    0.0000 ca      1  GRA         0.000000
   2484 C          78.6990   35.6127    0.0000 ca      1  GRA         0.000000
   2485 C          80.8260   34.3847    0.0000 ca      1  GRA         0.000000
   2486 C          80.1170   35.6127    0.0000 ca      1  GRA         0.000000
   2487 C          82.2440   34.3847    0.0000 ca      1  GRA         0.000000
   2488 C          82.9530   35.6127    0.0000 ca      1  GRA         0.000000
   2489 C          85.0800   34.3847    0.0000 ca      1  GRA         0.000000
   2490 C          84.3710   35.6127    0.0000 ca      1  GRA         0.000000
   2491 C          86.4980   34.3847    0.0000 ca      1  GRA         0.000000
   2492 C          87.2070   35.6127    0.0000 ca      1  GRA         0.000000
   2493 C          89.3340   34.3847    0.0000 ca      1  GRA         0.000000
   2494 C          88.6250   35.6127    0.0000 ca      1  GRA         0.000000
   2495 C          90.7520   34.3847    0.0000 ca      1  GRA         0.000000
   2496 C          91.4610   35.6127    0.0000 ca      1  GRA         0.000000
   2497 C          93.5880   34.3847    0.0000 ca      1  GRA         0.000000
   2498 C          92.8790   35.6127    0.0000 ca      1  GRA         0.000000
   2499 C          95.0060   34.3847    0.0000 ca      1  GRA         0.000000
   2500 C          95.7150   35.6127    0.0000 ca      1  GRA         0.000000
   2501 C          97.8420   34.3847    0.0000 ca      1  GRA         0.000000
   2502 C          97.1330   35.6127    0.0000 ca      1  GRA         0.000000
   2503 C          99.2600   34.3847    0.0000 ca      1  GRA         0.000000
   2504 C          99.9690   35.6127    0.0000 ca      1  GRA         0.000000
   2505 C         102.0960   34.3847    0.0000 ca      1  GRA         0.000000
   2506 C         101.3870   35.6127    0.0000 ca      1  GRA         0.000000
   2507 C         103.5140   34.3847    0.0000 ca      1  GRA         0.000000
   2508 C         104.2230   35.6127    0.0000 ca      1  GRA         0.000000
   2509 C         106.3500   34.3847    0.0000 ca      1  GRA         0.000000
   2510 C         105.6410   35.6127    0.0000 ca      1  GRA         0.000000
   2511 C         107.7680   34.3847    0.0000 ca      1  GRA         0.000000
   2512 C         108.4770   35.6127    0.0000 ca      1  GRA         0.000000
   2513 C         110.6040   34.3847    0.0000 ca      1  GRA         0.000000
   2514 C         109.8950   35.6127    0.0000 ca      1  GRA         0.000000
   2515 C         112.0220   34.3847    0.0000 ca      1  GRA         0.000000
   2516 C         112.7310   35.6127    0.0000 ca      1  GRA         0.000000
   2517 C         114.8580   34.3847    0.0000 ca      1  GRA         0.000000
   2518 C         114.1490   35.6127    0.0000 ca      1  GRA         0.000000
   2519 C         116.2760   34.3847    0.0000 ca      1  GRA         0.000000
   2520 C         116.9850   35.6127    0.0000 ca      1  GRA         0.000000
   2521 C         119.1120   34.3847    0.0000 ca      1  GRA         0.000000
   2522 C         118.4030   35.6127    0.0000 ca      1  GRA         0.000000
   2523 C         120.5300   34.3847    0.0000 ca      1  GRA         0.000000
   2524 C         121.2390   35.6127    0.0000 ca      1  GRA         0.000000
   2525 C         123.3660   34.3847    0.0000 ca      1  GRA         0.000000
   2526 C         122.6570   35.6127    0.0000 ca      1  GRA         0.000000
   2527 C         124.7840   34.3847    0.0000 ca      1  GRA         0.000000
   2528 C         125.4930   35.6127    0.0000 ca      1  GRA         0.000000
   2529 C         127.6200   34.3847    0.0000 ca      1  GRA         0.000000
   2530 C         126.9110   35.6127    0.0000 ca      1  GRA         0.000000
   2531 C         129.0380   34.3847    0.0000 ca      1  GRA         0.000000
   2532 C         129.7470   35.6127    0.0000 ca      1  GRA         0.000000
   2533 C         131.8740   34.3847    0.0000 ca      1  GRA         0.000000
   2534 C         131.1650   35.6127    0.0000 ca      1  GRA         0.000000
   2535 C         133.2920   34.3847    0.0000 ca      1  GRA         0.000000
   2536 C         134.0010   35.6127    0.0000 ca      1  GRA         0.000000
   2537 C         136.1280   34.3847    0.0000 ca      1  GRA         0.000000
   2538 C         135.4190   35.6127    0.0000 ca      1  GRA         0.000000
   2539 C         137.5460   34.3847    0.0000 ca      1  GRA         0.000000
   2540 C         138.2550   35.6127    0.0000 ca      1  GRA         0.000000
   2541 C         140.3820   34.3847    0.0000 ca      1  GRA         0.000000
   2542 C         139.6730   35.6127    0.0000 ca      1  GRA         0.000000
   2543 C         141.8000   34.3847    0.0000 ca      1  GRA         0.000000
   2544 C         142.5090   35.6127    0.0000 ca      1  GRA         0.000000
   2545 C         144.6360   34.3847    0.0000 ca      1  GRA         0.000000
   2546 C         143.9270   35.6127    0.0000 ca      1  GRA         0.000000
   2547 C         146.0540   34.3847    0.0000 ca      1  GRA         0.000000
   2548 C         146.7630   35.6127    0.0000 ca      1  GRA         0.000000
   2549 C         148.8900   34.3847    0.0000 ca      1  GRA         0.000000
   2550 C         148.1810   35.6127    0.0000 ca      1  GRA         0.000000
   2551 C         150.3080   34.3847    0.0000 ca      1  GRA         0.000000
   2552 C         151.0170   35.6127    0.0000 ca      1  GRA         0.000000
   2553 C         153.1440   34.3847    0.0000 ca      1  GRA         0.000000
   2554 C         152.4350   35.6127    0.0000 ca      1  GRA         0.000000
   2555 C         154.5620   34.3847    0.0000 ca      1  GRA         0.000000
   2556 C         155.2710   35.6127    0.0000 ca      1  GRA         0.000000
   2557 C         157.3980   34.3847    0.0000 ca      1  GRA         0.000000
   2558 C         156.6890   35.6127    0.0000 ca      1  GRA         0.000000
   2559 C         158.8160   34.3847    0.0000 ca      1  GRA         0.000000
   2560 C         159.5250   35.6127    0.0000 ca      1  GRA         0.000000
   2561 C         161.6520   34.3847    0.0000 ca      1  GRA         0.000000
   2562 C         160.9430   35.6127    0.0000 ca      1  GRA         0.000000
   2563 C         163.0700   34.3847    0.0000 ca      1  GRA         0.000000
   2564 C         163.7790   35.6127    0.0000 ca      1  GRA         0.000000
   2565 C         165.9060   34.3847    0.0000 ca      1  GRA         0.000000
   2566 C         165.1970   35.6127    0.0000 ca      1  GRA         0.000000
   2567 C         167.3240   34.3847    0.0000 ca      1  GRA         0.000000
   2568 C         168.0330   35.6127    0.0000 ca      1  GRA         0.000000
   2569 C         170.1600   34.3847    0.0000 ca      1  GRA         0.000000
   2570 C         169.4510   35.6127    0.0000 ca      1  GRA         0.000000
   2571 C         171.5780   34.3847    0.0000 ca      1  GRA         0.000000
   2572 C         172.2870   35.6127    0.0000 ca      1  GRA         0.000000
   2573 C         174.4140   34.3847    0.0000 ca      1  GRA         0.000000
   2574 C         173.7050   35.6127    0.0000 ca      1  GRA         0.000000
   2575 C         175.8320   34.3847    0.0000 ca      1  GRA         0.000000
   2576 C         176.5410   35.6127    0.0000 ca      1  GRA         0.000000
   2577 C         178.6680   34.3847    0.0000 ca      1  GRA         0.000000
   2578 C         177.9590   35.6127    0.0000 ca      1  GRA         0.000000
   2579 C         180.0860   34.3847    0.0000 ca      1  GRA         0.000000
   2580 C         180.7950   35.6127    0.0000 ca      1  GRA         0.000000
   2581 C           0.0000   36.8407    0.0000 ca      1  GRA         0.000000
   2582 C          -0.7090   38.0687    0.0000 ca      1  GRA         0.000000
   2583 C           1.4180   36.8407    0.0000 ca      1  GRA         0.000000
   2584 C           2.1270   38.0687    0.0000 ca      1  GRA         0.000000
   2585 C           4.2540   36.8407    0.0000 ca      1  GRA         0.000000
   2586 C           3.5450   38.0687    0.0000 ca      1  GRA         0.000000
   2587 C           5.6720   36.8407    0.0000 ca      1  GRA         0.000000
   2588 C           6.3810   38.0687    0.0000 ca      1  GRA         0.000000
   2589 C           8.5080   36.8407    0.0000 ca      1  GRA         0.000000
   2590 C           7.7990   38.0687    0.0000 ca      1  GRA         0.000000
   2591 C           9.9260   36.8407    0.0000 ca      1  GRA         0.000000
   2592 C          10.6350   38.0687    0.0000 ca      1  GRA         0.000000
   2593 C          12.7620   36.8407    0.0000 ca      1  GRA         0.000000
   2594 C          12.0530   38.0687    0.0000 ca      1  GRA         0.000000
   2595 C          14.1800   36.8407    0.0000 ca      1  GRA         0.000000
   2596 C          14.8890   38.0687    0.0000 ca      1  GRA         0.000000
   2597 C          17.0160   36.8407    0.0000 ca      1  GRA         0.000000
   2598 C          16.3070   38.0687    0.0000 ca      1  GRA         0.000000
   2599 C          18.4340   36.8407    0.0000 ca      1  GRA         0.000000
   2600 C          19.1430   38.0687    0.0000 ca      1  GRA         0.000000
   2601 C          21.2700   36.8407    0.0000 ca      1  GRA         0.000000
   2602 C          20.5610   38.0687    0.0000 ca      1  GRA         0.000000
   2603 C          22.6880   36.8407    0.0000 ca      1  GRA         0.000000
   2604 C          23.3970   38.0687    0.0000 ca      1  GRA         0.000000
   2605 C          25.5240   36.8407    0.0000 ca      1  GRA         0.000000
   2606 C          24.8150   38.0687    0.0000 ca      1  GRA         0.000000
   2607 C          26.9420   36.8407    0.0000 ca      1  GRA         0.000000
   2608 C          27.6510   38.0687    0.0000 ca      1  GRA         0.000000
   2609 C          29.7780   36.8407    0.0000 ca      1  GRA         0.000000
   2610 C          29.0690   38.0687    0.0000 ca      1  GRA         0.000000
   2611 C          31.1960   36.8407    0.0000 ca      1  GRA         0.000000
   2612 C          31.9050   38.0687    0.0000 ca      1  GRA         0.000000
   2613 C          34.0320   36.8407    0.0000 ca      1  GRA         0.000000
   2614 C          33.3230   38.0687    0.0000 ca      1  GRA         0.000000
   2615 C          35.4500   36.8407    0.0000 ca      1  GRA         0.000000
   2616 C          36.1590   38.0687    0.0000 ca      1  GRA         0.000000
   2617 C          38.2860   36.8407    0.0000 ca      1  GRA         0.000000
   2618 C          37.5770   38.0687    0.0000 ca      1  GRA         0.000000
   2619 C          39.7040   36.8407    0.0000 ca      1  GRA         0.000000
   2620 C          40.4130   38.0687    0.0000 ca      1  GRA         0.000000
   2621 C          42.5400   36.8407    0.0000 ca      1  GRA         0.000000
   2622 C          41.8310   38.0687    0.0000 ca      1  GRA         0.000000
   2623 C          43.9580   36.8407    0.0000 ca      1  GRA         0.000000
   2624 C          44.6670   38.0687    0.0000 ca      1  GRA         0.000000
   2625 C          46.7940   36.8407    0.0000 ca      1  GRA         0.000000
   2626 C          46.0850   38.0687    0.0000 ca      1  GRA         0.000000
   2627 C          48.2120   36.8407    0.0000 ca      1  GRA         0.000000
   2628 C          48.9210   38.0687    0.0000 ca      1  GRA         0.000000
   2629 C          51.0480   36.8407    0.0000 ca      1  GRA         0.000000
   2630 C          50.3390   38.0687    0.0000 ca      1  GRA         0.000000
   2631 C          52.4660   36.8407    0.0000 ca      1  GRA         0.000000
   2632 C          53.1750   38.0687    0.0000 ca      1  GRA         0.000000
   2633 C          55.3020   36.8407    0.0000 ca      1  GRA         0.000000
   2634 C          54.5930   38.0687    0.0000 ca      1  GRA         0.000000
   2635 C          56.7200   36.8407    0.0000 ca      1  GRA         0.000000
   2636 C          57.4290   38.0687    0.0000 ca      1  GRA         0.000000
   2637 C          59.5560   36.8407    0.0000 ca      1  GRA         0.000000
   2638 C          58.8470   38.0687    0.0000 ca      1  GRA         0.000000
   2639 C          60.9740   36.8407    0.0000 ca      1  GRA         0.000000
   2640 C          61.6830   38.0687    0.0000 ca      1  GRA         0.000000
   2641 C          63.8100   36.8407    0.0000 ca      1  GRA         0.000000
   2642 C          63.1010   38.0687    0.0000 ca      1  GRA         0.000000
   2643 C          65.2280   36.8407    0.0000 ca      1  GRA         0.000000
   2644 C          65.9370   38.0687    0.0000 ca      1  GRA         0.000000
   2645 C          68.0640   36.8407    0.0000 ca      1  GRA         0.000000
   2646 C          67.3550   38.0687    0.0000 ca      1  GRA         0.000000
   2647 C          69.4820   36.8407    0.0000 ca      1  GRA         0.000000
   2648 C          70.1910   38.0687    0.0000 ca      1  GRA         0.000000
   2649 C          72.3180   36.8407    0.0000 ca      1  GRA         0.000000
   2650 C          71.6090   38.0687    0.0000 ca      1  GRA         0.000000
   2651 C          73.7360   36.8407    0.0000 ca      1  GRA         0.000000
   2652 C          74.4450   38.0687    0.0000 ca      1  GRA         0.000000
   2653 C          76.5720   36.8407    0.0000 ca      1  GRA         0.000000
   2654 C          75.8630   38.0687    0.0000 ca      1  GRA         0.000000
   2655 C          77.9900   36.8407    0.0000 ca      1  GRA         0.000000
   2656 C          78.6990   38.0687    0.0000 ca      1  GRA         0.000000
   2657 C          80.8260   36.8407    0.0000 ca      1  GRA         0.000000
   2658 C          80.1170   38.0687    0.0000 ca      1  GRA         0.000000
   2659 C          82.2440   36.8407    0.0000 ca      1  GRA         0.000000
   2660 C          82.9530   38.0687    0.0000 ca      1  GRA         0.000000
   2661 C          85.0800   36.8407    0.0000 ca      1  GRA         0.000000
   2662 C          84.3710   38.0687    0.0000 ca      1  GRA         0.000000
   2663 C          86.4980   36.8407    0.0000 ca      1  GRA         0.000000
   2664 C          87.2070   38.0687    0.0000 ca      1  GRA         0.000000
   2665 C          89.3340   36.8407    0.0000 ca      1  GRA         0.000000
   2666 C          88.6250   38.0687    0.0000 ca      1  GRA         0.000000
   2667 C          90.7520   36.8407    0.0000 ca      1  GRA         0.000000
   2668 C          91.4610   38.0687    0.0000 ca      1  GRA         0.000000
   2669 C          93.5880   36.8407    0.0000 ca      1  GRA         0.000000
   2670 C          92.8790   38.0687    0.0000 ca      1  GRA         0.000000
   2671 C          95.0060   36.8407    0.0000 ca      1  GRA         0.000000
   2672 C          95.7150   38.0687    0.0000 ca      1  GRA         0.000000
   2673 C          97.8420   36.8407    0.0000 ca      1  GRA         0.000000
   2674 C          97.1330   38.0687    0.0000 ca      1  GRA         0.000000
   2675 C          99.2600   36.8407    0.0000 ca      1  GRA         0.000000
   2676 C          99.9690   38.0687    0.0000 ca      1  GRA         0.000000
   2677 C         102.0960   36.8407    0.0000 ca      1  GRA         0.000000
   2678 C         101.3870   38.0687    0.0000 ca      1  GRA         0.000000
   2679 C         103.5140   36.8407    0.0000 ca      1  GRA         0.000000
   2680 C         104.2230   38.0687    0.0000 ca      1  GRA         0.000000
   2681 C         106.3500   36.8407    0.0000 ca      1  GRA         0.000000
   2682 C         105.6410   38.0687    0.0000 ca      1  GRA         0.000000
   2683 C         107.7680   36.8407    0.0000 ca      1  GRA         0.000000
   2684 C         108.4770   38.0687    0.0000 ca      1  GRA         0.000000
   2685 C         110.6040   36.8407    0.0000 ca      1  GRA         0.000000
   2686 C         109.8950   38.0687    0.0000 ca      1  GRA         0.000000
   2687 C         112.0220   36.8407    0.0000 ca      1  GRA         0.000000
   2688 C         112.7310   38.0687    0.0000 ca      1  GRA         0.000000
   2689 C         114.8580   36.8407    0.0000 ca      1  GRA         0.000000
   2690 C         114.1490   38.0687    0.0000 ca      1  GRA         0.000000
   2691 C         116.2760   36.8407    0.0000 ca      1  GRA         0.000000
   2692 C         116.9850   38.0687    0.0000 ca      1  GRA         0.000000
   2693 C         119.1120   36.8407    0.0000 ca      1  GRA         0.000000
   2694 C         118.4030   38.0687    0.0000 ca      1  GRA         0.000000
   2695 C         120.5300   36.8407    0.0000 ca      1  GRA         0.000000
   2696 C         121.2390   38.0687    0.0000 ca      1  GRA         0.000000
   2697 C         123.3660   36.8407    0.0000 ca      1  GRA         0.000000
   2698 C         122.6570   38.0687    0.0000 ca      1  GRA         0.000000
   2699 C         124.7840   36.8407    0.0000 ca      1  GRA         0.000000
   2700 C         125.4930   38.0687    0.0000 ca      1  GRA         0.000000
   2701 C         127.6200   36.8407    0.0000 ca      1  GRA         0.000000
   2702 C         126.9110   38.0687    0.0000 ca      1  GRA         0.000000
   2703 C         129.0380   36.8407    0.0000 ca      1  GRA         0.000000
   2704 C         129.7470   38.0687    0.0000 ca      1  GRA         0.000000
   2705 C         131.8740   36.8407    0.0000 ca      1  GRA         0.000000
   2706 C         131.1650   38.0687    0.0000 ca      1  GRA         0.000000
   2707 C         133.2920   36.8407    0.0000 ca      1  GRA         0.000000
   2708 C         134.0010   38.0687    0.0000 ca      1  GRA         0.000000
   2709 C         136.1280   36.8407    0.0000 ca      1  GRA         0.000000
   2710 C         135.4190   38.0687    0.0000 ca      1  GRA         0.000000
   2711 C         137.5460   36.8407    0.0000 ca      1  GRA         0.000000
   2712 C         138.2550   38.0687    0.0000 ca      1  GRA         0.000000
   2713 C         140.3820   36.8407    0.0000 ca      1  GRA         0.000000
   2714 C         139.6730   38.0687    0.0000 ca      1  GRA         0.000000
   2715 C         141.8000   36.8407    0.0000 ca      1  GRA         0.000000
   2716 C         142.5090   38.0687    0.0000 ca      1  GRA         0.000000
   2717 C         144.6360   36.8407    0.0000 ca      1  GRA         0.000000
   2718 C         143.9270   38.0687    0.0000 ca      1  GRA         0.000000
   2719 C         146.0540   36.8407    0.0000 ca      1  GRA         0.000000
   2720 C         146.7630   38.0687    0.0000 ca      1  GRA         0.000000
   2721 C         148.8900   36.8407    0.0000 ca      1  GRA         0.000000
   2722 C         148.1810   38.0687    0.0000 ca      1  GRA         0.000000
   2723 C         150.3080   36.8407    0.0000 ca      1  GRA         0.000000
   2724 C         151.0170   38.0687    0.0000 ca      1  GRA         0.000000
   2725 C         153.1440   36.8407    0.0000 ca      1  GRA         0.000000
   2726 C         152.4350   38.0687    0.0000 ca      1  GRA         0.000000
   2727 C         154.5620   36.8407    0.0000 ca      1  GRA         0.000000
   2728 C         155.2710   38.0687    0.0000 ca      1  GRA         0.000000
   2729 C         157.3980   36.8407    0.0000 ca      1  GRA         0.000000
   2730 C         156.6890   38.0687    0.0000 ca      1  GRA         0.000000
   2731 C         158.8160   36.8407    0.0000 ca      1  GRA         0.000000
   2732 C         159.5250   38.0687    0.0000 ca      1  GRA         0.000000
   2733 C         161.6520   36.8407    0.0000 ca      1  GRA         0.000000
   2734 C         160.9430   38.0687    0.0000 ca      1  GRA         0.000000
   2735 C         163.0700   36.8407    0.0000 ca      1  GRA         0.000000
   2736 C         163.7790   38.0687    0.0000 ca      1  GRA         0.000000
   2737 C         165.9060   36.8407    0.0000 ca      1  GRA         0.000000
   2738 C         165.1970   38.0687    0.0000 ca      1  GRA         0.000000
   2739 C         167.3240   36.8407    0.0000 ca      1  GRA         0.000000
   2740 C         168.0330   38.0687    0.0000 ca      1  GRA         0.000000
   2741 C         170.1600   36.8407    0.0000 ca      1  GRA         0.000000
   2742 C         169.4510   38.0687    0.0000 ca      1  GRA         0.000000
   2743 C         171.5780   36.8407    0.0000 ca      1  GRA         0.000000
   2744 C         172.2870   38.0687    0.0000 ca      1  GRA         0.000000
   2745 C         174.4140   36.8407    0.0000 ca      1  GRA         0.000000
   2746 C         173.7050   38.0687    0.0000 ca      1  GRA         0.000000
   2747 C         175.8320   36.8407    0.0000 ca      1  GRA         0.000000
   2748 C         176.5410   38.0687    0.0000 ca      1  GRA         0.000000
   2749 C         178.6680   36.8407    0.0000 ca      1  GRA         0.000000
   2750 C         177.9590   38.0687    0.0000 ca      1  GRA         0.000000
   2751 C         180.0860   36.8407    0.0000 ca      1  GRA         0.000000
   2752 C         180.7950   38.0687    0.0000 ca      1  GRA         0.000000
   2753 C           0.0000   39.2968    0.0000 ca      1  GRA         0.000000
   2754 C          -0.7090   40.5248    0.0000 ca      1  GRA         0.000000
   2755 C           1.4180   39.2968    0.0000 ca      1  GRA         0.000000
   2756 C           2.1270   40.5248    0.0000 ca      1  GRA         0.000000
   2757 C           4.2540   39.2968    0.0000 ca      1  GRA         0.000000
   2758 C           3.5450   40.5248    0.0000 ca      1  GRA         0.000000
   2759 C           5.6720   39.2968    0.0000 ca      1  GRA         0.000000
   2760 C           6.3810   40.5248    0.0000 ca      1  GRA         0.000000
   2761 C           8.5080   39.2968    0.0000 ca      1  GRA         0.000000
   2762 C           7.7990   40.5248    0.0000 ca      1  GRA         0.000000
   2763 C           9.9260   39.2968    0.0000 ca      1  GRA         0.000000
   2764 C          10.6350   40.5248    0.0000 ca      1  GRA         0.000000
   2765 C          12.7620   39.2968    0.0000 ca      1  GRA         0.000000
   2766 C          12.0530   40.5248    0.0000 ca      1  GRA         0.000000
   2767 C          14.1800   39.2968    0.0000 ca      1  GRA         0.000000
   2768 C          14.8890   40.5248    0.0000 ca      1  GRA         0.000000
   2769 C          17.0160   39.2968    0.0000 ca      1  GRA         0.000000
   2770 C          16.3070   40.5248    0.0000 ca      1  GRA         0.000000
   2771 C          18.4340   39.2968    0.0000 ca      1  GRA         0.000000
   2772 C          19.1430   40.5248    0.0000 ca      1  GRA         0.000000
   2773 C          21.2700   39.2968    0.0000 ca      1  GRA         0.000000
   2774 C          20.5610   40.5248    0.0000 ca      1  GRA         0.000000
   2775 C          22.6880   39.2968    0.0000 ca      1  GRA         0.000000
   2776 C          23.3970   40.5248    0.0000 ca      1  GRA         0.000000
   2777 C          25.5240   39.2968    0.0000 ca      1  GRA         0.000000
   2778 C          24.8150   40.5248    0.0000 ca      1  GRA         0.000000
   2779 C          26.9420   39.2968    0.0000 ca      1  GRA         0.000000
   2780 C          27.6510   40.5248    0.0000 ca      1  GRA         0.000000
   2781 C          29.7780   39.2968    0.0000 ca      1  GRA         0.000000
   2782 C          29.0690   40.5248    0.0000 ca      1  GRA         0.000000
   2783 C          31.1960   39.2968    0.0000 ca      1  GRA         0.000000
   2784 C          31.9050   40.5248    0.0000 ca      1  GRA         0.000000
   2785 C          34.0320   39.2968    0.0000 ca      1  GRA         0.000000
   2786 C          33.3230   40.5248    0.0000 ca      1  GRA         0.000000
   2787 C          35.4500   39.2968    0.0000 ca      1  GRA         0.000000
   2788 C          36.1590   40.5248    0.0000 ca      1  GRA         0.000000
   2789 C          38.2860   39.2968    0.0000 ca      1  GRA         0.000000
   2790 C          37.5770   40.5248    0.0000 ca      1  GRA         0.000000
   2791 C          39.7040   39.2968    0.0000 ca      1  GRA         0.000000
   2792 C          40.4130   40.5248    0.0000 ca      1  GRA         0.000000
   2793 C          42.5400   39.2968    0.0000 ca      1  GRA         0.000000
   2794 C          41.8310   40.5248    0.0000 ca      1  GRA         0.000000
   2795 C          43.9580   39.2968    0.0000 ca      1  GRA         0.000000
   2796 C          44.6670   40.5248    0.0000 ca      1  GRA         0.000000
   2797 C          46.7940   39.2968    0.0000 ca      1  GRA         0.000000
   2798 C          46.0850   40.5248    0.0000 ca      1  GRA         0.000000
   2799 C          48.2120   39.2968    0.0000 ca      1  GRA         0.000000
   2800 C          48.9210   40.5248    0.0000 ca      1  GRA         0.000000
   2801 C          51.0480   39.2968    0.0000 ca      1  GRA         0.000000
   2802 C          50.3390   40.5248    0.0000 ca      1  GRA         0.000000
   2803 C          52.4660   39.2968    0.0000 ca      1  GRA         0.000000
   2804 C          53.1750   40.5248    0.0000 ca      1  GRA         0.000000
   2805 C          55.3020   39.2968    0.0000 ca      1  GRA         0.000000
   2806 C          54.5930   40.5248    0.0000 ca      1  GRA         0.000000
   2807 C          56.7200   39.2968    0.0000 ca      1  GRA         0.000000
   2808 C          57.4290   40.5248    0.0000 ca      1  GRA         0.000000
   2809 C          59.5560   39.2968    0.0000 ca      1  GRA         0.000000
   2810 C          58.8470   40.5248    0.0000 ca      1  GRA         0.000000
   2811 C          60.9740   39.2968    0.0000 ca      1  GRA         0.000000
   2812 C          61.6830   40.5248    0.0000 ca      1  GRA         0.000000
   2813 C          63.8100   39.2968    0.0000 ca      1  GRA         0.000000
   2814 C          63.1010   40.5248    0.0000 ca      1  GRA         0.000000
   2815 C          65.2280   39.2968    0.0000 ca      1  GRA         0.000000
   2816 C          65.9370   40.5248    0.0000 ca      1  GRA         0.000000
   2817 C          68.0640   39.2968    0.0000 ca      1  GRA         0.000000
   2818 C          67.3550   40.5248    0.0000 ca      1  GRA         0.000000
   2819 C          69.4820   39.2968    0.0000 ca      1  GRA         0.000000
   2820 C          70.1910   40.5248    0.0000 ca      1  GRA         0.000000
   2821 C          72.3180   39.2968    0.0000 ca      1  GRA         0.000000
   2822 C          71.6090   40.5248    0.0000 ca      1  GRA         0.000000
   2823 C          73.7360   39.2968    0.0000 ca      1  GRA         0.000000
   2824 C          74.4450   40.5248    0.0000 ca      1  GRA         0.000000
   2825 C          76.5720   39.2968    0.0000 ca      1  GRA         0.000000
   2826 C          75.8630   40.5248    0.0000 ca      1  GRA         0.000000
   2827 C          77.9900   39.2968    0.0000 ca      1  GRA         0.000000
   2828 C          78.6990   40.5248    0.0000 ca      1  GRA         0.000000
   2829 C          80.8260   39.2968    0.0000 ca      1  GRA         0.000000
   2830 C          80.1170   40.5248    0.0000 ca      1  GRA         0.000000
   2831 C          82.2440   39.2968    0.0000 ca      1  GRA         0.000000
   2832 C          82.9530   40.5248    0.0000 ca      1  GRA         0.000000
   2833 C          85.0800   39.2968    0.0000 ca      1  GRA         0.000000
   2834 C          84.3710   40.5248    0.0000 ca      1  GRA         0.000000
   2835 C          86.4980   39.2968    0.0000 ca      1  GRA         0.000000
   2836 C          87.2070   40.5248    0.0000 ca      1  GRA         0.000000
   2837 C          89.3340   39.2968    0.0000 ca      1  GRA         0.000000
   2838 C          88.6250   40.5248    0.0000 ca      1  GRA         0.000000
   2839 C          90.7520   39.2968    0.0000 ca      1  GRA         0.000000
   2840 C          91.4610   40.5248    0.0000 ca      1  GRA         0.000000
   2841 C          93.5880   39.2968    0.0000 ca      1  GRA         0.000000
   2842 C          92.8790   40.5248    0.0000 ca      1  GRA         0.000000
   2843 C          95.0060   39.2968    0.0000 ca      1  GRA         0.000000
   2844 C          95.7150   40.5248    0.0000 ca      1  GRA         0.000000
   2845 C          97.8420   39.2968    0.0000 ca      1  GRA         0.000000
   2846 C          97.1330   40.5248    0.0000 ca      1  GRA         0.000000
   2847 C          99.2600   39.2968    0.0000 ca      1  GRA         0.000000
   2848 C          99.9690   40.5248    0.0000 ca      1  GRA         0.000000
   2849 C         102.0960   39.2968    0.0000 ca      1  GRA         0.000000
   2850 C         101.3870   40.5248    0.0000 ca      1  GRA         0.000000
   2851 C         103.5140   39.2968    0.0000 ca      1  GRA         0.000000
   2852 C         104.2230   40.5248    0.0000 ca      1  GRA         0.000000
   2853 C         106.3500   39.2968    0.0000 ca      1  GRA         0.000000
   2854 C         105.6410   40.5248    0.0000 ca      1  GRA         0.000000
   2855 C         107.7680   39.2968    0.0000 ca      1  GRA         0.000000
   2856 C         108.4770   40.5248    0.0000 ca      1  GRA         0.000000
   2857 C         110.6040   39.2968    0.0000 ca      1  GRA         0.000000
   2858 C         109.8950   40.5248    0.0000 ca      1  GRA         0.000000
   2859 C         112.0220   39.2968    0.0000 ca      1  GRA         0.000000
   2860 C         112.7310   40.5248    0.0000 ca      1  GRA         0.000000
   2861 C         114.8580   39.2968    0.0000 ca      1  GRA         0.000000
   2862 C         114.1490   40.5248    0.0000 ca      1  GRA         0.000000
   2863 C         116.2760   39.2968    0.0000 ca      1  GRA         0.000000
   2864 C         116.9850   40.5248    0.0000 ca      1  GRA         0.000000
   2865 C         119.1120   39.2968    0.0000 ca      1  GRA         0.000000
   2866 C         118.4030   40.5248    0.0000 ca      1  GRA         0.000000
   2867 C         120.5300   39.2968    0.0000 ca      1  GRA         0.000000
   2868 C         121.2390   40.5248    0.0000 ca      1  GRA         0.000000
   2869 C         123.3660   39.2968    0.0000 ca      1  GRA         0.000000
   2870 C         122.6570   40.5248    0.0000 ca      1  GRA         0.000000
   2871 C         124.7840   39.2968    0.0000 ca      1  GRA         0.000000
   2872 C         125.4930   40.5248    0.0000 ca      1  GRA         0.000000
   2873 C         127.6200   39.2968    0.0000 ca      1  GRA         0.000000
   2874 C         126.9110   40.5248    0.0000 ca      1  GRA         0.000000
   2875 C         129.0380   39.2968    0.0000 ca      1  GRA         0.000000
   2876 C         129.7470   40.5248    0.0000 ca      1  GRA         0.000000
   2877 C         131.8740   39.2968    0.0000 ca      1  GRA         0.000000
   2878 C         131.1650   40.5248    0.0000 ca      1  GRA         0.000000
   2879 C         133.2920   39.2968    0.0000 ca      1  GRA         0.000000
   2880 C         134.0010   40.5248    0.0000 ca      1  GRA         0.000000
   2881 C         136.1280   39.2968    0.0000 ca      1  GRA         0.000000
   2882 C         135.4190   40.5248    0.0000 ca      1  GRA         0.000000
   2883 C         137.5460   39.2968    0.0000 ca      1  GRA         0.000000
   2884 C         138.2550   40.5248    0.0000 ca      1  GRA         0.000000
   2885 C         140.3820   39.2968    0.0000 ca      1  GRA         0.000000
   2886 C         139.6730   40.5248    0.0000 ca      1  GRA         0.000000
   2887 C         141.8000   39.2968    0.0000 ca      1  GRA         0.000000
   2888 C         142.5090   40.5248    0.0000 ca      1  GRA         0.000000
   2889 C         144.6360   39.2968    0.0000 ca      1  GRA         0.000000
   2890 C         143.9270   40.5248    0.0000 ca      1  GRA         0.000000
   2891 C         146.0540   39.2968    0.0000 ca      1  GRA         0.000000
   2892 C         146.7630   40.5248    0.0000 ca      1  GRA         0.000000
   2893 C         148.8900   39.2968    0.0000 ca      1  GRA         0.000000
   2894 C         148.1810   40.5248    0.0000 ca      1  GRA         0.000000
   2895 C         150.3080   39.2968    0.0000 ca      1  GRA         0.000000
   2896 C         151.0170   40.5248    0.0000 ca      1  GRA         0.000000
   2897 C         153.1440   39.2968    0.0000 ca      1  GRA         0.000000
   2898 C         152.4350   40.5248    0.0000 ca      1  GRA         0.000000
   2899 C         154.5620   39.2968    0.0000 ca      1  GRA         0.000000
   2900 C         155.2710   40.5248    0.0000 ca      1  GRA         0.000000
   2901 C         157.3980   39.2968    0.0000 ca      1  GRA         0.000000
   2902 C         156.6890   40.5248    0.0000 ca      1  GRA         0.000000
   2903 C         158.8160   39.2968    0.0000 ca      1  GRA         0.000000
   2904 C         159.5250   40.5248    0.0000 ca      1  GRA         0.000000
   2905 C         161.6520   39.2968    0.0000 ca      1  GRA         0.000000
   2906 C         160.9430   40.5248    0.0000 ca      1  GRA         0.000000
   2907 C         163.0700   39.2968    0.0000 ca      1  GRA         0.000000
   2908 C         163.7790   40.5248    0.0000 ca      1  GRA         0.000000
   2909 C         165.9060   39.2968    0.0000 ca      1  GRA         0.000000
   2910 C         165.1970   40.5248    0.0000 ca      1  GRA         0.000000
   2911 C         167.3240   39.2968    0.0000 ca      1  GRA         0.000000
   2912 C         168.0330   40.5248    0.0000 ca      1  GRA         0.000000
   2913 C         170.1600   39.2968    0.0000 ca      1  GRA         0.000000
   2914 C         169.4510   40.5248    0.0000 ca      1  GRA         0.000000
   2915 C         171.5780   39.2968    0.0000 ca      1  GRA         0.000000
   2916 C         172.2870   40.5248    0.0000 ca      1  GRA         0.000000
   2917 C         174.4140   39.2968    0.0000 ca      1  GRA         0.000000
   2918 C         173.7050   40.5248    0.0000 ca      1  GRA         0.000000
   2919 C         175.8320   39.2968    0.0000 ca      1  GRA         0.000000
   2920 C         176.5410   40.5248    0.0000 ca      1  GRA         0.000000
   2921 C         178.6680   39.2968    0.0000 ca      1  GRA         0.000000
   2922 C         177.9590   40.5248    0.0000 ca      1  GRA         0.000000
   2923 C         180.0860   39.2968    0.0000 ca      1  GRA         0.000000
   2924 C         180.7950   40.5248    0.0000 ca      1  GRA         0.000000
   2925 C           0.0000   41.7528    0.0000 ca      1  GRA         0.000000
   2926 C          -0.7090   42.9808    0.0000 ca      1  GRA         0.000000
   2927 C           1.4180   41.7528    0.0000 ca      1  GRA         0.000000
   2928 C           2.1270   42.9808    0.0000 ca      1  GRA         0.000000
   2929 C           4.2540   41.7528    0.0000 ca      1  GRA         0.000000
   2930 C           3.5450   42.9808    0.0000 ca      1  GRA         0.000000
   2931 C           5.6720   41.7528    0.0000 ca      1  GRA         0.000000
   2932 C           6.3810   42.9808    0.0000 ca      1  GRA         0.000000
   2933 C           8.5080   41.7528    0.0000 ca      1  GRA         0.000000
   2934 C           7.7990   42.9808    0.0000 ca      1  GRA         0.000000
   2935 C           9.9260   41.7528    0.0000 ca      1  GRA         0.000000
   2936 C          10.6350   42.9808    0.0000 ca      1  GRA         0.000000
   2937 C          12.7620   41.7528    0.0000 ca      1  GRA         0.000000
   2938 C          12.0530   42.9808    0.0000 ca      1  GRA         0.000000
   2939 C          14.1800   41.7528    0.0000 ca      1  GRA         0.000000
   2940 C          14.8890   42.9808    0.0000 ca      1  GRA         0.000000
   2941 C          17.0160   41.7528    0.0000 ca      1  GRA         0.000000
   2942 C          16.3070   42.9808    0.0000 ca      1  GRA         0.000000
   2943 C          18.4340   41.7528    0.0000 ca      1  GRA         0.000000
   2944 C          19.1430   42.9808    0.0000 ca      1  GRA         0.000000
   2945 C          21.2700   41.7528    0.0000 ca      1  GRA         0.000000
   2946 C          20.5610   42.9808    0.0000 ca      1  GRA         0.000000
   2947 C          22.6880   41.7528    0.0000 ca      1  GRA         0.000000
   2948 C          23.3970   42.9808    0.0000 ca      1  GRA         0.000000
   2949 C          25.5240   41.7528    0.0000 ca      1  GRA         0.000000
   2950 C          24.8150   42.9808    0.0000 ca      1  GRA         0.000000
   2951 C          26.9420   41.7528    0.0000 ca      1  GRA         0.000000
   2952 C          27.6510   42.9808    0.0000 ca      1  GRA         0.000000
   2953 C          29.7780   41.7528    0.0000 ca      1  GRA         0.000000
   2954 C          29.0690   42.9808    0.0000 ca      1  GRA         0.000000
   2955 C          31.1960   41.7528    0.0000 ca      1  GRA         0.000000
   2956 C          31.9050   42.9808    0.0000 ca      1  GRA         0.000000
   2957 C          34.0320   41.7528    0.0000 ca      1  GRA         0.000000
   2958 C          33.3230   42.9808    0.0000 ca      1  GRA         0.000000
   2959 C          35.4500   41.7528    0.0000 ca      1  GRA         0.000000
   2960 C          36.1590   42.9808    0.0000 ca      1  GRA         0.000000
   2961 C          38.2860   41.7528    0.0000 ca      1  GRA         0.000000
   2962 C          37.5770   42.9808    0.0000 ca      1  GRA         0.000000
   2963 C          39.7040   41.7528    0.0000 ca      1  GRA         0.000000
   2964 C          40.4130   42.9808    0.0000 ca      1  GRA         0.000000
   2965 C          42.5400   41.7528    0.0000 ca      1  GRA         0.000000
   2966 C          41.8310   42.9808    0.0000 ca      1  GRA         0.000000
   2967 C          43.9580   41.7528    0.0000 ca      1  GRA         0.000000
   2968 C          44.6670   42.9808    0.0000 ca      1  GRA         0.000000
   2969 C          46.7940   41.7528    0.0000 ca      1  GRA         0.000000
   2970 C          46.0850   42.9808    0.0000 ca      1  GRA         0.000000
   2971 C          48.2120   41.7528    0.0000 ca      1  GRA         0.000000
   2972 C          48.9210   42.9808    0.0000 ca      1  GRA         0.000000
   2973 C          51.0480   41.7528    0.0000 ca      1  GRA         0.000000
   2974 C          50.3390   42.9808    0.0000 ca      1  GRA         0.000000
   2975 C          52.4660   41.7528    0.0000 ca      1  GRA         0.000000
   2976 C          53.1750   42.9808    0.0000 ca      1  GRA         0.000000
   2977 C          55.3020   41.7528    0.0000 ca      1  GRA         0.000000
   2978 C          54.5930   42.9808    0.0000 ca      1  GRA         0.000000
   2979 C          56.7200   41.7528    0.0000 ca      1  GRA         0.000000
   2980 C          57.4290   42.9808    0.0000 ca      1  GRA         0.000000
   2981 C          59.5560   41.7528    0.0000 ca      1  GRA         0.000000
   2982 C          58.8470   42.9808    0.0000 ca      1  GRA         0.000000
   2983 C          60.9740   41.7528    0.0000 ca      1  GRA         0.000000
   2984 C          61.6830   42.9808    0.0000 ca      1  GRA         0.000000
   2985 C          63.8100   41.7528    0.0000 ca      1  GRA         0.000000
   2986 C          63.1010   42.9808    0.0000 ca      1  GRA         0.000000
   2987 C          65.2280   41.7528    0.0000 ca      1  GRA         0.000000
   2988 C          65.9370   42.9808    0.0000 ca      1  GRA         0.000000
   2989 C          68.0640   41.7528    0.0000 ca      1  GRA         0.000000
   2990 C          67.3550   42.9808    0.0000 ca      1  GRA         0.000000
   2991 C          69.4820   41.7528    0.0000 ca      1  GRA         0.000000
   2992 C          70.1910   42.9808    0.0000 ca      1  GRA         0.000000
   2993 C          72.3180   41.7528    0.0000 ca      1  GRA         0.000000
   2994 C          71.6090   42.9808    0.0000 ca      1  GRA         0.000000
   2995 C          73.7360   41.7528    0.0000 ca      1  GRA         0.000000
   2996 C          74.4450   42.9808    0.0000 ca      1  GRA         0.000000
   2997 C          76.5720   41.7528    0.0000 ca      1  GRA         0.000000
   2998 C          75.8630   42.9808    0.0000 ca      1  GRA         0.000000
   2999 C          77.9900   41.7528    0.0000 ca      1  GRA         0.000000
   3000 C          78.6990   42.9808    0.0000 ca      1  GRA         0.000000
   3001 C          80.8260   41.7528    0.0000 ca      1  GRA         0.000000
   3002 C          80.1170   42.9808    0.0000 ca      1  GRA         0.000000
   3003 C          82.2440   41.7528    0.0000 ca      1  GRA         0.000000
   3004 C          82.9530   42.9808    0.0000 ca      1  GRA         0.000000
   3005 C          85.0800   41.7528    0.0000 ca      1  GRA         0.000000
   3006 C          84.3710   42.9808    0.0000 ca      1  GRA         0.000000
   3007 C          86.4980   41.7528    0.0000 ca      1  GRA         0.000000
   3008 C          87.2070   42.9808    0.0000 ca      1  GRA         0.000000
   3009 C          89.3340   41.7528    0.0000 ca      1  GRA         0.000000
   3010 C          88.6250   42.9808    0.0000 ca      1  GRA         0.000000
   3011 C          90.7520   41.7528    0.0000 ca      1  GRA         0.000000
   3012 C          91.4610   42.9808    0.0000 ca      1  GRA         0.000000
   3013 C          93.5880   41.7528    0.0000 ca      1  GRA         0.000000
   3014 C          92.8790   42.9808    0.0000 ca      1  GRA         0.000000
   3015 C          95.0060   41.7528    0.0000 ca      1  GRA         0.000000
   3016 C          95.7150   42.9808    0.0000 ca      1  GRA         0.000000
   3017 C          97.8420   41.7528    0.0000 ca      1  GRA         0.000000
   3018 C          97.1330   42.9808    0.0000 ca      1  GRA         0.000000
   3019 C          99.2600   41.7528    0.0000 ca      1  GRA         0.000000
   3020 C          99.9690   42.9808    0.0000 ca      1  GRA         0.000000
   3021 C         102.0960   41.7528    0.0000 ca      1  GRA         0.000000
   3022 C         101.3870   42.9808    0.0000 ca      1  GRA         0.000000
   3023 C         103.5140   41.7528    0.0000 ca      1  GRA         0.000000
   3024 C         104.2230   42.9808    0.0000 ca      1  GRA         0.000000
   3025 C         106.3500   41.7528    0.0000 ca      1  GRA         0.000000
   3026 C         105.6410   42.9808    0.0000 ca      1  GRA         0.000000
   3027 C         107.7680   41.7528    0.0000 ca      1  GRA         0.000000
   3028 C         108.4770   42.9808    0.0000 ca      1  GRA         0.000000
   3029 C         110.6040   41.7528    0.0000 ca      1  GRA         0.000000
   3030 C         109.8950   42.9808    0.0000 ca      1  GRA         0.000000
   3031 C         112.0220   41.7528    0.0000 ca      1  GRA         0.000000
   3032 C         112.7310   42.9808    0.0000 ca      1  GRA         0.000000
   3033 C         114.8580   41.7528    0.0000 ca      1  GRA         0.000000
   3034 C         114.1490   42.9808    0.0000 ca      1  GRA         0.000000
   3035 C         116.2760   41.7528    0.0000 ca      1  GRA         0.000000
   3036 C         116.9850   42.9808    0.0000 ca      1  GRA         0.000000
   3037 C         119.1120   41.7528    0.0000 ca      1  GRA         0.000000
   3038 C         118.4030   42.9808    0.0000 ca      1  GRA         0.000000
   3039 C         120.5300   41.7528    0.0000 ca      1  GRA         0.000000
   3040 C         121.2390   42.9808    0.0000 ca      1  GRA         0.000000
   3041 C         123.3660   41.7528    0.0000 ca      1  GRA         0.000000
   3042 C         122.6570   42.9808    0.0000 ca      1  GRA         0.000000
   3043 C         124.7840   41.7528    0.0000 ca      1  GRA         0.000000
   3044 C         125.4930   42.9808    0.0000 ca      1  GRA         0.000000
   3045 C         127.6200   41.7528    0.0000 ca      1  GRA         0.000000
   3046 C         126.9110   42.9808    0.0000 ca      1  GRA         0.000000
   3047 C         129.0380   41.7528    0.0000 ca      1  GRA         0.000000
   3048 C         129.7470   42.9808    0.0000 ca      1  GRA         0.000000
   3049 C         131.8740   41.7528    0.0000 ca      1  GRA         0.000000
   3050 C         131.1650   42.9808    0.0000 ca      1  GRA         0.000000
   3051 C         133.2920   41.7528    0.0000 ca      1  GRA         0.000000
   3052 C         134.0010   42.9808    0.0000 ca      1  GRA         0.000000
   3053 C         136.1280   41.7528    0.0000 ca      1  GRA         0.000000
   3054 C         135.4190   42.9808    0.0000 ca      1  GRA         0.000000
   3055 C         137.5460   41.7528    0.0000 ca      1  GRA         0.000000
   3056 C         138.2550   42.9808    0.0000 ca      1  GRA         0.000000
   3057 C         140.3820   41.7528    0.0000 ca      1  GRA         0.000000
   3058 C         139.6730   42.9808    0.0000 ca      1  GRA         0.000000
   3059 C         141.8000   41.7528    0.0000 ca      1  GRA         0.000000
   3060 C         142.5090   42.9808    0.0000 ca      1  GRA         0.000000
   3061 C         144.6360   41.7528    0.0000 ca      1  GRA         0.000000
   3062 C         143.9270   42.9808    0.0000 ca      1  GRA         0.000000
   3063 C         146.0540   41.7528    0.0000 ca      1  GRA         0.000000
   3064 C         146.7630   42.9808    0.0000 ca      1  GRA         0.000000
   3065 C         148.8900   41.7528    0.0000 ca      1  GRA         0.000000
   3066 C         148.1810   42.9808    0.0000 ca      1  GRA         0.000000
   3067 C         150.3080   41.7528    0.0000 ca      1  GRA         0.000000
   3068 C         151.0170   42.9808    0.0000 ca      1  GRA         0.000000
   3069 C         153.1440   41.7528    0.0000 ca      1  GRA         0.000000
   3070 C         152.4350   42.9808    0.0000 ca      1  GRA         0.000000
   3071 C         154.5620   41.7528    0.0000 ca      1  GRA         0.000000
   3072 C         155.2710   42.9808    0.0000 ca      1  GRA         0.000000
   3073 C         157.3980   41.7528    0.0000 ca      1  GRA         0.000000
   3074 C         156.6890   42.9808    0.0000 ca      1  GRA         0.000000
   3075 C         158.8160   41.7528    0.0000 ca      1  GRA         0.000000
   3076 C         159.5250   42.9808    0.0000 ca      1  GRA         0.000000
   3077 C         161.6520   41.7528    0.0000 ca      1  GRA         0.000000
   3078 C         160.9430   42.9808    0.0000 ca      1  GRA         0.000000
   3079 C         163.0700   41.7528    0.0000 ca      1  GRA         0.000000
   3080 C         163.7790   42.9808    0.0000 ca      1  GRA         0.000000
   3081 C         165.9060   41.7528    0.0000 ca      1  GRA         0.000000
   3082 C         165.1970   42.9808    0.0000 ca      1  GRA         0.000000
   3083 C         167.3240   41.7528    0.0000 ca      1  GRA         0.000000
   3084 C         168.0330   42.9808    0.0000 ca      1  GRA         0.000000
   3085 C         170.1600   41.7528    0.0000 ca      1  GRA         0.000000
   3086 C         169.4510   42.9808    0.0000 ca      1  GRA         0.000000
   3087 C         171.5780   41.7528    0.0000 ca      1  GRA         0.000000
   3088 C         172.2870   42.9808    0.0000 ca      1  GRA         0.000000
   3089 C         174.4140   41.7528    0.0000 ca      1  GRA         0.000000
   3090 C         173.7050   42.9808    0.0000 ca      1  GRA         0.000000
   3091 C         175.8320   41.7528    0.0000 ca      1  GRA         0.000000
   3092 C         176.5410   42.9808    0.0000 ca      1  GRA         0.000000
   3093 C         178.6680   41.7528    0.0000 ca      1  GRA         0.000000
   3094 C         177.9590   42.9808    0.0000 ca      1  GRA         0.000000
   3095 C         180.0860   41.7528    0.0000 ca      1  GRA         0.000000
   3096 C         180.7950   42.9808    0.0000 ca      1  GRA         0.000000
   3097 C           0.0000   44.2089    0.0000 ca      1  GRA         0.000000
   3098 C          -0.7090   45.4369    0.0000 ca      1  GRA         0.000000
   3099 C           1.4180   44.2089    0.0000 ca      1  GRA         0.000000
   3100 C           2.1270   45.4369    0.0000 ca      1  GRA         0.000000
   3101 C           4.2540   44.2089    0.0000 ca      1  GRA         0.000000
   3102 C           3.5450   45.4369    0.0000 ca      1  GRA         0.000000
   3103 C           5.6720   44.2089    0.0000 ca      1  GRA         0.000000
   3104 C           6.3810   45.4369    0.0000 ca      1  GRA         0.000000
   3105 C           8.5080   44.2089    0.0000 ca      1  GRA         0.000000
   3106 C           7.7990   45.4369    0.0000 ca      1  GRA         0.000000
   3107 C           9.9260   44.2089    0.0000 ca      1  GRA         0.000000
   3108 C          10.6350   45.4369    0.0000 ca      1  GRA         0.000000
   3109 C          12.7620   44.2089    0.0000 ca      1  GRA         0.000000
   3110 C          12.0530   45.4369    0.0000 ca      1  GRA         0.000000
   3111 C          14.1800   44.2089    0.0000 ca      1  GRA         0.000000
   3112 C          14.8890   45.4369    0.0000 ca      1  GRA         0.000000
   3113 C          17.0160   44.2089    0.0000 ca      1  GRA         0.000000
   3114 C          16.3070   45.4369    0.0000 ca      1  GRA         0.000000
   3115 C          18.4340   44.2089    0.0000 ca      1  GRA         0.000000
   3116 C          19.1430   45.4369    0.0000 ca      1  GRA         0.000000
   3117 C          21.2700   44.2089    0.0000 ca      1  GRA         0.000000
   3118 C          20.5610   45.4369    0.0000 ca      1  GRA         0.000000
   3119 C          22.6880   44.2089    0.0000 ca      1  GRA         0.000000
   3120 C          23.3970   45.4369    0.0000 ca      1  GRA         0.000000
   3121 C          25.5240   44.2089    0.0000 ca      1  GRA         0.000000
   3122 C          24.8150   45.4369    0.0000 ca      1  GRA         0.000000
   3123 C          26.9420   44.2089    0.0000 ca      1  GRA         0.000000
   3124 C          27.6510   45.4369    0.0000 ca      1  GRA         0.000000
   3125 C          29.7780   44.2089    0.0000 ca      1  GRA         0.000000
   3126 C          29.0690   45.4369    0.0000 ca      1  GRA         0.000000
   3127 C          31.1960   44.2089    0.0000 ca      1  GRA         0.000000
   3128 C          31.9050   45.4369    0.0000 ca      1  GRA         0.000000
   3129 C          34.0320   44.2089    0.0000 ca      1  GRA         0.000000
   3130 C          33.3230   45.4369    0.0000 ca      1  GRA         0.000000
   3131 C          35.4500   44.2089    0.0000 ca      1  GRA         0.000000
   3132 C          36.1590   45.4369    0.0000 ca      1  GRA         0.000000
   3133 C          38.2860   44.2089    0.0000 ca      1  GRA         0.000000
   3134 C          37.5770   45.4369    0.0000 ca      1  GRA         0.000000
   3135 C          39.7040   44.2089    0.0000 ca      1  GRA         0.000000
   3136 C          40.4130   45.4369    0.0000 ca      1  GRA         0.000000
   3137 C          42.5400   44.2089    0.0000 ca      1  GRA         0.000000
   3138 C          41.8310   45.4369    0.0000 ca      1  GRA         0.000000
   3139 C          43.9580   44.2089    0.0000 ca      1  GRA         0.000000
   3140 C          44.6670   45.4369    0.0000 ca      1  GRA         0.000000
   3141 C          46.7940   44.2089    0.0000 ca      1  GRA         0.000000
   3142 C          46.0850   45.4369    0.0000 ca      1  GRA         0.000000
   3143 C          48.2120   44.2089    0.0000 ca      1  GRA         0.000000
   3144 C          48.9210   45.4369    0.0000 ca      1  GRA         0.000000
   3145 C          51.0480   44.2089    0.0000 ca      1  GRA         0.000000
   3146 C          50.3390   45.4369    0.0000 ca      1  GRA         0.000000
   3147 C          52.4660   44.2089    0.0000 ca      1  GRA         0.000000
   3148 C          53.1750   45.4369    0.0000 ca      1  GRA         0.000000
   3149 C          55.3020   44.2089    0.0000 ca      1  GRA         0.000000
   3150 C          54.5930   45.4369    0.0000 ca      1  GRA         0.000000
   3151 C          56.7200   44.2089    0.0000 ca      1  GRA         0.000000
   3152 C          57.4290   45.4369    0.0000 ca      1  GRA         0.000000
   3153 C          59.5560   44.2089    0.0000 ca      1  GRA         0.000000
   3154 C          58.8470   45.4369    0.0000 ca      1  GRA         0.000000
   3155 C          60.9740   44.2089    0.0000 ca      1  GRA         0.000000
   3156 C          61.6830   45.4369    0.0000 ca      1  GRA         0.000000
   3157 C          63.8100   44.2089    0.0000 ca      1  GRA         0.000000
   3158 C          63.1010   45.4369    0.0000 ca      1  GRA         0.000000
   3159 C          65.2280   44.2089    0.0000 ca      1  GRA         0.000000
   3160 C          65.9370   45.4369    0.0000 ca      1  GRA         0.000000
   3161 C          68.0640   44.2089    0.0000 ca      1  GRA         0.000000
   3162 C          67.3550   45.4369    0.0000 ca      1  GRA         0.000000
   3163 C          69.4820   44.2089    0.0000 ca      1  GRA         0.000000
   3164 C          70.1910   45.4369    0.0000 ca      1  GRA         0.000000
   3165 C          72.3180   44.2089    0.0000 ca      1  GRA         0.000000
   3166 C          71.6090   45.4369    0.0000 ca      1  GRA         0.000000
   3167 C          73.7360   44.2089    0.0000 ca      1  GRA         0.000000
   3168 C          74.4450   45.4369    0.0000 ca      1  GRA         0.000000
   3169 C          76.5720   44.2089    0.0000 ca      1  GRA         0.000000
   3170 C          75.8630   45.4369    0.0000 ca      1  GRA         0.000000
   3171 C          77.9900   44.2089    0.0000 ca      1  GRA         0.000000
   3172 C          78.6990   45.4369    0.0000 ca      1  GRA         0.000000
   3173 C          80.8260   44.2089    0.0000 ca      1  GRA         0.000000
   3174 C          80.1170   45.4369    0.0000 ca      1  GRA         0.000000
   3175 C          82.2440   44.2089    0.0000 ca      1  GRA         0.000000
   3176 C          82.9530   45.4369    0.0000 ca      1  GRA         0.000000
   3177 C          85.0800   44.2089    0.0000 ca      1  GRA         0.000000
   3178 C          84.3710   45.4369    0.0000 ca      1  GRA         0.000000
   3179 C          86.4980   44.2089    0.0000 ca      1  GRA         0.000000
   3180 C          87.2070   45.4369    0.0000 ca      1  GRA         0.000000
   3181 C          89.3340   44.2089    0.0000 ca      1  GRA         0.000000
   3182 C          88.6250   45.4369    0.0000 ca      1  GRA         0.000000
   3183 C          90.7520   44.2089    0.0000 ca      1  GRA         0.000000
   3184 C          91.4610   45.4369    0.0000 ca      1  GRA         0.000000
   3185 C          93.5880   44.2089    0.0000 ca      1  GRA         0.000000
   3186 C          92.8790   45.4369    0.0000 ca      1  GRA         0.000000
   3187 C          95.0060   44.2089    0.0000 ca      1  GRA         0.000000
   3188 C          95.7150   45.4369    0.0000 ca      1  GRA         0.000000
   3189 C          97.8420   44.2089    0.0000 ca      1  GRA         0.000000
   3190 C          97.1330   45.4369    0.0000 ca      1  GRA         0.000000
   3191 C          99.2600   44.2089    0.0000 ca      1  GRA         0.000000
   3192 C          99.9690   45.4369    0.0000 ca      1  GRA         0.000000
   3193 C         102.0960   44.2089    0.0000 ca      1  GRA         0.000000
   3194 C         101.3870   45.4369    0.0000 ca      1  GRA         0.000000
   3195 C         103.5140   44.2089    0.0000 ca      1  GRA         0.000000
   3196 C         104.2230   45.4369    0.0000 ca      1  GRA         0.000000
   3197 C         106.3500   44.2089    0.0000 ca      1  GRA         0.000000
   3198 C         105.6410   45.4369    0.0000 ca      1  GRA         0.000000
   3199 C         107.7680   44.2089    0.0000 ca      1  GRA         0.000000
   3200 C         108.4770   45.4369    0.0000 ca      1  GRA         0.000000
   3201 C         110.6040   44.2089    0.0000 ca      1  GRA         0.000000
   3202 C         109.8950   45.4369    0.0000 ca      1  GRA         0.000000
   3203 C         112.0220   44.2089    0.0000 ca      1  GRA         0.000000
   3204 C         112.7310   45.4369    0.0000 ca      1  GRA         0.000000
   3205 C         114.8580   44.2089    0.0000 ca      1  GRA         0.000000
   3206 C         114.1490   45.4369    0.0000 ca      1  GRA         0.000000
   3207 C         116.2760   44.2089    0.0000 ca      1  GRA         0.000000
   3208 C         116.9850   45.4369    0.0000 ca      1  GRA         0.000000
   3209 C         119.1120   44.2089    0.0000 ca      1  GRA         0.000000
   3210 C         118.4030   45.4369    0.0000 ca      1  GRA         0.000000
   3211 C         120.5300   44.2089    0.0000 ca      1  GRA         0.000000
   3212 C         121.2390   45.4369    0.0000 ca      1  GRA         0.000000
   3213 C         123.3660   44.2089    0.0000 ca      1  GRA         0.000000
   3214 C         122.6570   45.4369    0.0000 ca      1  GRA         0.000000
   3215 C         124.7840   44.2089    0.0000 ca      1  GRA         0.000000
   3216 C         125.4930   45.4369    0.0000 ca      1  GRA         0.000000
   3217 C         127.6200   44.2089    0.0000 ca      1  GRA         0.000000
   3218 C         126.9110   45.4369    0.0000 ca      1  GRA         0.000000
   3219 C         129.0380   44.2089    0.0000 ca      1  GRA         0.000000
   3220 C         129.7470   45.4369    0.0000 ca      1  GRA         0.000000
   3221 C         131.8740   44.2089    0.0000 ca      1  GRA         0.000000
   3222 C         131.1650   45.4369    0.0000 ca      1  GRA         0.000000
   3223 C         133.2920   44.2089    0.0000 ca      1  GRA         0.000000
   3224 C         134.0010   45.4369    0.0000 ca      1  GRA         0.000000
   3225 C         136.1280   44.2089    0.0000 ca      1  GRA         0.000000
   3226 C         135.4190   45.4369    0.0000 ca      1  GRA         0.000000
   3227 C         137.5460   44.2089    0.0000 ca      1  GRA         0.000000
   3228 C         138.2550   45.4369    0.0000 ca      1  GRA         0.000000
   3229 C         140.3820   44.2089    0.0000 ca      1  GRA         0.000000
   3230 C         139.6730   45.4369    0.0000 ca      1  GRA         0.000000
   3231 C         141.8000   44.2089    0.0000 ca      1  GRA         0.000000
   3232 C         142.5090   45.4369    0.0000 ca      1  GRA         0.000000
   3233 C         144.6360   44.2089    0.0000 ca      1  GRA         0.000000
   3234 C         143.9270   45.4369    0.0000 ca      1  GRA         0.000000
   3235 C         146.0540   44.2089    0.0000 ca      1  GRA         0.000000
   3236 C         146.7630   45.4369    0.0000 ca      1  GRA         0.000000
   3237 C         148.8900   44.2089    0.0000 ca      1  GRA         0.000000
   3238 C         148.1810   45.4369    0.0000 ca      1  GRA         0.000000
   3239 C         150.3080   44.2089    0.0000 ca      1  GRA         0.000000
   3240 C         151.0170   45.4369    0.0000 ca      1  GRA         0.000000
   3241 C         153.1440   44.2089    0.0000 ca      1  GRA         0.000000
   3242 C         152.4350   45.4369    0.0000 ca      1  GRA         0.000000
   3243 C         154.5620   44.2089    0.0000 ca      1  GRA         0.000000
   3244 C         155.2710   45.4369    0.0000 ca      1  GRA         0.000000
   3245 C         157.3980   44.2089    0.0000 ca      1  GRA         0.000000
   3246 C         156.6890   45.4369    0.0000 ca      1  GRA         0.000000
   3247 C         158.8160   44.2089    0.0000 ca      1  GRA         0.000000
   3248 C         159.5250   45.4369    0.0000 ca      1  GRA         0.000000
   3249 C         161.6520   44.2089    0.0000 ca      1  GRA         0.000000
   3250 C         160.9430   45.4369    0.0000 ca      1  GRA         0.000000
   3251 C         163.0700   44.2089    0.0000 ca      1  GRA         0.000000
   3252 C         163.7790   45.4369    0.0000 ca      1  GRA         0.000000
   3253 C         165.9060   44.2089    0.0000 ca      1  GRA         0.000000
   3254 C         165.1970   45.4369    0.0000 ca      1  GRA         0.000000
   3255 C         167.3240   44.2089    0.0000 ca      1  GRA         0.000000
   3256 C         168.0330   45.4369    0.0000 ca      1  GRA         0.000000
   3257 C         170.1600   44.2089    0.0000 ca      1  GRA         0.000000
   3258 C         169.4510   45.4369    0.0000 ca      1  GRA         0.000000
   3259 C         171.5780   44.2089    0.0000 ca      1  GRA         0.000000
   3260 C         172.2870   45.4369    0.0000 ca      1  GRA         0.000000
   3261 C         174.4140   44.2089    0.0000 ca      1  GRA         0.000000
   3262 C         173.7050   45.4369    0.0000 ca      1  GRA         0.000000
   3263 C         175.8320   44.2089    0.0000 ca      1  GRA         0.000000
   3264 C         176.5410   45.4369    0.0000 ca      1  GRA         0.000000
   3265 C         178.6680   44.2089    0.0000 ca      1  GRA         0.000000
   3266 C         177.9590   45.4369    0.0000 ca      1  GRA         0.000000
   3267 C         180.0860   44.2089    0.0000 ca      1  GRA         0.000000
   3268 C         180.7950   45.4369    0.0000 ca      1  GRA         0.000000
   3269 C           0.0000   46.6649    0.0000 ca      1  GRA         0.000000
   3270 C          -0.7090   47.8929    0.0000 ca      1  GRA         0.000000
   3271 C           1.4180   46.6649    0.0000 ca      1  GRA         0.000000
   3272 C           2.1270   47.8929    0.0000 ca      1  GRA         0.000000
   3273 C           4.2540   46.6649    0.0000 ca      1  GRA         0.000000
   3274 C           3.5450   47.8929    0.0000 ca      1  GRA         0.000000
   3275 C           5.6720   46.6649    0.0000 ca      1  GRA         0.000000
   3276 C           6.3810   47.8929    0.0000 ca      1  GRA         0.000000
   3277 C           8.5080   46.6649    0.0000 ca      1  GRA         0.000000
   3278 C           7.7990   47.8929    0.0000 ca      1  GRA         0.000000
   3279 C           9.9260   46.6649    0.0000 ca      1  GRA         0.000000
   3280 C          10.6350   47.8929    0.0000 ca      1  GRA         0.000000
   3281 C          12.7620   46.6649    0.0000 ca      1  GRA         0.000000
   3282 C          12.0530   47.8929    0.0000 ca      1  GRA         0.000000
   3283 C          14.1800   46.6649    0.0000 ca      1  GRA         0.000000
   3284 C          14.8890   47.8929    0.0000 ca      1  GRA         0.000000
   3285 C          17.0160   46.6649    0.0000 ca      1  GRA         0.000000
   3286 C          16.3070   47.8929    0.0000 ca      1  GRA         0.000000
   3287 C          18.4340   46.6649    0.0000 ca      1  GRA         0.000000
   3288 C          19.1430   47.8929    0.0000 ca      1  GRA         0.000000
   3289 C          21.2700   46.6649    0.0000 ca      1  GRA         0.000000
   3290 C          20.5610   47.8929    0.0000 ca      1  GRA         0.000000
   3291 C          22.6880   46.6649    0.0000 ca      1  GRA         0.000000
   3292 C          23.3970   47.8929    0.0000 ca      1  GRA         0.000000
   3293 C          25.5240   46.6649    0.0000 ca      1  GRA         0.000000
   3294 C          24.8150   47.8929    0.0000 ca      1  GRA         0.000000
   3295 C          26.9420   46.6649    0.0000 ca      1  GRA         0.000000
   3296 C          27.6510   47.8929    0.0000 ca      1  GRA         0.000000
   3297 C          29.7780   46.6649    0.0000 ca      1  GRA         0.000000
   3298 C          29.0690   47.8929    0.0000 ca      1  GRA         0.000000
   3299 C          31.1960   46.6649    0.0000 ca      1  GRA         0.000000
   3300 C          31.9050   47.8929    0.0000 ca      1  GRA         0.000000
   3301 C          34.0320   46.6649    0.0000 ca      1  GRA         0.000000
   3302 C          33.3230   47.8929    0.0000 ca      1  GRA         0.000000
   3303 C          35.4500   46.6649    0.0000 ca      1  GRA         0.000000
   3304 C          36.1590   47.8929    0.0000 ca      1  GRA         0.000000
   3305 C          38.2860   46.6649    0.0000 ca      1  GRA         0.000000
   3306 C          37.5770   47.8929    0.0000 ca      1  GRA         0.000000
   3307 C          39.7040   46.6649    0.0000 ca      1  GRA         0.000000
   3308 C          40.4130   47.8929    0.0000 ca      1  GRA         0.000000
   3309 C          42.5400   46.6649    0.0000 ca      1  GRA         0.000000
   3310 C          41.8310   47.8929    0.0000 ca      1  GRA         0.000000
   3311 C          43.9580   46.6649    0.0000 ca      1  GRA         0.000000
   3312 C          44.6670   47.8929    0.0000 ca      1  GRA         0.000000
   3313 C          46.7940   46.6649    0.0000 ca      1  GRA         0.000000
   3314 C          46.0850   47.8929    0.0000 ca      1  GRA         0.000000
   3315 C          48.2120   46.6649    0.0000 ca      1  GRA         0.000000
   3316 C          48.9210   47.8929    0.0000 ca      1  GRA         0.000000
   3317 C          51.0480   46.6649    0.0000 ca      1  GRA         0.000000
   3318 C          50.3390   47.8929    0.0000 ca      1  GRA         0.000000
   3319 C          52.4660   46.6649    0.0000 ca      1  GRA         0.000000
   3320 C          53.1750   47.8929    0.0000 ca      1  GRA         0.000000
   3321 C          55.3020   46.6649    0.0000 ca      1  GRA         0.000000
   3322 C          54.5930   47.8929    0.0000 ca      1  GRA         0.000000
   3323 C          56.7200   46.6649    0.0000 ca      1  GRA         0.000000
   3324 C          57.4290   47.8929    0.0000 ca      1  GRA         0.000000
   3325 C          59.5560   46.6649    0.0000 ca      1  GRA         0.000000
   3326 C          58.8470   47.8929    0.0000 ca      1  GRA         0.000000
   3327 C          60.9740   46.6649    0.0000 ca      1  GRA         0.000000
   3328 C          61.6830   47.8929    0.0000 ca      1  GRA         0.000000
   3329 C          63.8100   46.6649    0.0000 ca      1  GRA         0.000000
   3330 C          63.1010   47.8929    0.0000 ca      1  GRA         0.000000
   3331 C          65.2280   46.6649    0.0000 ca      1  GRA         0.000000
   3332 C          65.9370   47.8929    0.0000 ca      1  GRA         0.000000
   3333 C          68.0640   46.6649    0.0000 ca      1  GRA         0.000000
   3334 C          67.3550   47.8929    0.0000 ca      1  GRA         0.000000
   3335 C          69.4820   46.6649    0.0000 ca      1  GRA         0.000000
   3336 C          70.1910   47.8929    0.0000 ca      1  GRA         0.000000
   3337 C          72.3180   46.6649    0.0000 ca      1  GRA         0.000000
   3338 C          71.6090   47.8929    0.0000 ca      1  GRA         0.000000
   3339 C          73.7360   46.6649    0.0000 ca      1  GRA         0.000000
   3340 C          74.4450   47.8929    0.0000 ca      1  GRA         0.000000
   3341 C          76.5720   46.6649    0.0000 ca      1  GRA         0.000000
   3342 C          75.8630   47.8929    0.0000 ca      1  GRA         0.000000
   3343 C          77.9900   46.6649    0.0000 ca      1  GRA         0.000000
   3344 C          78.6990   47.8929    0.0000 ca      1  GRA         0.000000
   3345 C          80.8260   46.6649    0.0000 ca      1  GRA         0.000000
   3346 C          80.1170   47.8929    0.0000 ca      1  GRA         0.000000
   3347 C          82.2440   46.6649    0.0000 ca      1  GRA         0.000000
   3348 C          82.9530   47.8929    0.0000 ca      1  GRA         0.000000
   3349 C          85.0800   46.6649    0.0000 ca      1  GRA         0.000000
   3350 C          84.3710   47.8929    0.0000 ca      1  GRA         0.000000
   3351 C          86.4980   46.6649    0.0000 ca      1  GRA         0.000000
   3352 C          87.2070   47.8929    0.0000 ca      1  GRA         0.000000
   3353 C          89.3340   46.6649    0.0000 ca      1  GRA         0.000000
   3354 C          88.6250   47.8929    0.0000 ca      1  GRA         0.000000
   3355 C          90.7520   46.6649    0.0000 ca      1  GRA         0.000000
   3356 C          91.4610   47.8929    0.0000 ca      1  GRA         0.000000
   3357 C          93.5880   46.6649    0.0000 ca      1  GRA         0.000000
   3358 C          92.8790   47.8929    0.0000 ca      1  GRA         0.000000
   3359 C          95.0060   46.6649    0.0000 ca      1  GRA         0.000000
   3360 C          95.7150   47.8929    0.0000 ca      1  GRA         0.000000
   3361 C          97.8420   46.6649    0.0000 ca      1  GRA         0.000000
   3362 C          97.1330   47.8929    0.0000 ca      1  GRA         0.000000
   3363 C          99.2600   46.6649    0.0000 ca      1  GRA         0.000000
   3364 C          99.9690   47.8929    0.0000 ca      1  GRA         0.000000
   3365 C         102.0960   46.6649    0.0000 ca      1  GRA         0.000000
   3366 C         101.3870   47.8929    0.0000 ca      1  GRA         0.000000
   3367 C         103.5140   46.6649    0.0000 ca      1  GRA         0.000000
   3368 C         104.2230   47.8929    0.0000 ca      1  GRA         0.000000
   3369 C         106.3500   46.6649    0.0000 ca      1  GRA         0.000000
   3370 C         105.6410   47.8929    0.0000 ca      1  GRA         0.000000
   3371 C         107.7680   46.6649    0.0000 ca      1  GRA         0.000000
   3372 C         108.4770   47.8929    0.0000 ca      1  GRA         0.000000
   3373 C         110.6040   46.6649    0.0000 ca      1  GRA         0.000000
   3374 C         109.8950   47.8929    0.0000 ca      1  GRA         0.000000
   3375 C         112.0220   46.6649    0.0000 ca      1  GRA         0.000000
   3376 C         112.7310   47.8929    0.0000 ca      1  GRA         0.000000
   3377 C         114.8580   46.6649    0.0000 ca      1  GRA         0.000000
   3378 C         114.1490   47.8929    0.0000 ca      1  GRA         0.000000
   3379 C         116.2760   46.6649    0.0000 ca      1  GRA         0.000000
   3380 C         116.9850   47.8929    0.0000 ca      1  GRA         0.000000
   3381 C         119.1120   46.6649    0.0000 ca      1  GRA         0.000000
   3382 C         118.4030   47.8929    0.0000 ca      1  GRA         0.000000
   3383 C         120.5300   46.6649    0.0000 ca      1  GRA         0.000000
   3384 C         121.2390   47.8929    0.0000 ca      1  GRA         0.000000
   3385 C         123.3660   46.6649    0.0000 ca      1  GRA         0.000000
   3386 C         122.6570   47.8929    0.0000 ca      1  GRA         0.000000
   3387 C         124.7840   46.6649    0.0000 ca      1  GRA         0.000000
   3388 C         125.4930   47.8929    0.0000 ca      1  GRA         0.000000
   3389 C         127.6200   46.6649    0.0000 ca      1  GRA         0.000000
   3390 C         126.9110   47.8929    0.0000 ca      1  GRA         0.000000
   3391 C         129.0380   46.6649    0.0000 ca      1  GRA         0.000000
   3392 C         129.7470   47.8929    0.0000 ca      1  GRA         0.000000
   3393 C         131.8740   46.6649    0.0000 ca      1  GRA         0.000000
   3394 C         131.1650   47.8929    0.0000 ca      1  GRA         0.000000
   3395 C         133.2920   46.6649    0.0000 ca      1  GRA         0.000000
   3396 C         134.0010   47.8929    0.0000 ca      1  GRA         0.000000
   3397 C         136.1280   46.6649    0.0000 ca      1  GRA         0.000000
   3398 C         135.4190   47.8929    0.0000 ca      1  GRA         0.000000
   3399 C         137.5460   46.6649    0.0000 ca      1  GRA         0.000000
   3400 C         138.2550   47.8929    0.0000 ca      1  GRA         0.000000
   3401 C         140.3820   46.6649    0.0000 ca      1  GRA         0.000000
   3402 C         139.6730   47.8929    0.0000 ca      1  GRA         0.000000
   3403 C         141.8000   46.6649    0.0000 ca      1  GRA         0.000000
   3404 C         142.5090   47.8929    0.0000 ca      1  GRA         0.000000
   3405 C         144.6360   46.6649    0.0000 ca      1  GRA         0.000000
   3406 C         143.9270   47.8929    0.0000 ca      1  GRA         0.000000
   3407 C         146.0540   46.6649    0.0000 ca      1  GRA         0.000000
   3408 C         146.7630   47.8929    0.0000 ca      1  GRA         0.000000
   3409 C         148.8900   46.6649    0.0000 ca      1  GRA         0.000000
   3410 C         148.1810   47.8929    0.0000 ca      1  GRA         0.000000
   3411 C         150.3080   46.6649    0.0000 ca      1  GRA         0.000000
   3412 C         151.0170   47.8929    0.0000 ca      1  GRA         0.000000
   3413 C         153.1440   46.6649    0.0000 ca      1  GRA         0.000000
   3414 C         152.4350   47.8929    0.0000 ca      1  GRA         0.000000
   3415 C         154.5620   46.6649    0.0000 ca      1  GRA         0.000000
   3416 C         155.2710   47.8929    0.0000 ca      1  GRA         0.000000
   3417 C         157.3980   46.6649    0.0000 ca      1  GRA         0.000000
   3418 C         156.6890   47.8929    0.0000 ca      1  GRA         0.000000
   3419 C         158.8160   46.6649    0.0000 ca      1  GRA         0.000000
   3420 C         159.5250   47.8929    0.0000 ca      1  GRA         0.000000
   3421 C         161.6520   46.6649    0.0000 ca      1  GRA         0.000000
   3422 C         160.9430   47.8929    0.0000 ca      1  GRA         0.000000
   3423 C         163.0700   46.6649    0.0000 ca      1  GRA         0.000000
   3424 C         163.7790   47.8929    0.0000 ca      1  GRA         0.000000
   3425 C         165.9060   46.6649    0.0000 ca      1  GRA         0.000000
   3426 C         165.1970   47.8929    0.0000 ca      1  GRA         0.000000
   3427 C         167.3240   46.6649    0.0000 ca      1  GRA         0.000000
   3428 C         168.0330   47.8929    0.0000 ca      1  GRA         0.000000
   3429 C         170.1600   46.6649    0.0000 ca      1  GRA         0.000000
   3430 C         169.4510   47.8929    0.0000 ca      1  GRA         0.000000
   3431 C         171.5780   46.6649    0.0000 ca      1  GRA         0.000000
   3432 C         172.2870   47.8929    0.0000 ca      1  GRA         0.000000
   3433 C         174.4140   46.6649    0.0000 ca      1  GRA         0.000000
   3434 C         173.7050   47.8929    0.0000 ca      1  GRA         0.000000
   3435 C         175.8320   46.6649    0.0000 ca      1  GRA         0.000000
   3436 C         176.5410   47.8929    0.0000 ca      1  GRA         0.000000
   3437 C         178.6680   46.6649    0.0000 ca      1  GRA         0.000000
   3438 C         177.9590   47.8929    0.0000 ca      1  GRA         0.000000
   3439 C         180.0860   46.6649    0.0000 ca      1  GRA         0.000000
   3440 C         180.7950   47.8929    0.0000 ca      1  GRA         0.000000
   3441 C           0.0000   49.1210    0.0000 ca      1  GRA         0.000000
   3442 C          -0.7090   50.3490    0.0000 ca      1  GRA         0.000000
   3443 C           1.4180   49.1210    0.0000 ca      1  GRA         0.000000
   3444 C           2.1270   50.3490    0.0000 ca      1  GRA         0.000000
   3445 C           4.2540   49.1210    0.0000 ca      1  GRA         0.000000
   3446 C           3.5450   50.3490    0.0000 ca      1  GRA         0.000000
   3447 C           5.6720   49.1210    0.0000 ca      1  GRA         0.000000
   3448 C           6.3810   50.3490    0.0000 ca      1  GRA         0.000000
   3449 C           8.5080   49.1210    0.0000 ca      1  GRA         0.000000
   3450 C           7.7990   50.3490    0.0000 ca      1  GRA         0.000000
   3451 C           9.9260   49.1210    0.0000 ca      1  GRA         0.000000
   3452 C          10.6350   50.3490    0.0000 ca      1  GRA         0.000000
   3453 C          12.7620   49.1210    0.0000 ca      1  GRA         0.000000
   3454 C          12.0530   50.3490    0.0000 ca      1  GRA         0.000000
   3455 C          14.1800   49.1210    0.0000 ca      1  GRA         0.000000
   3456 C          14.8890   50.3490    0.0000 ca      1  GRA         0.000000
   3457 C          17.0160   49.1210    0.0000 ca      1  GRA         0.000000
   3458 C          16.3070   50.3490    0.0000 ca      1  GRA         0.000000
   3459 C          18.4340   49.1210    0.0000 ca      1  GRA         0.000000
   3460 C          19.1430   50.3490    0.0000 ca      1  GRA         0.000000
   3461 C          21.2700   49.1210    0.0000 ca      1  GRA         0.000000
   3462 C          20.5610   50.3490    0.0000 ca      1  GRA         0.000000
   3463 C          22.6880   49.1210    0.0000 ca      1  GRA         0.000000
   3464 C          23.3970   50.3490    0.0000 ca      1  GRA         0.000000
   3465 C          25.5240   49.1210    0.0000 ca      1  GRA         0.000000
   3466 C          24.8150   50.3490    0.0000 ca      1  GRA         0.000000
   3467 C          26.9420   49.1210    0.0000 ca      1  GRA         0.000000
   3468 C          27.6510   50.3490    0.0000 ca      1  GRA         0.000000
   3469 C          29.7780   49.1210    0.0000 ca      1  GRA         0.000000
   3470 C          29.0690   50.3490    0.0000 ca      1  GRA         0.000000
   3471 C          31.1960   49.1210    0.0000 ca      1  GRA         0.000000
   3472 C          31.9050   50.3490    0.0000 ca      1  GRA         0.000000
   3473 C          34.0320   49.1210    0.0000 ca      1  GRA         0.000000
   3474 C          33.3230   50.3490    0.0000 ca      1  GRA         0.000000
   3475 C          35.4500   49.1210    0.0000 ca      1  GRA         0.000000
   3476 C          36.1590   50.3490    0.0000 ca      1  GRA         0.000000
   3477 C          38.2860   49.1210    0.0000 ca      1  GRA         0.000000
   3478 C          37.5770   50.3490    0.0000 ca      1  GRA         0.000000
   3479 C          39.7040   49.1210    0.0000 ca      1  GRA         0.000000
   3480 C          40.4130   50.3490    0.0000 ca      1  GRA         0.000000
   3481 C          42.5400   49.1210    0.0000 ca      1  GRA         0.000000
   3482 C          41.8310   50.3490    0.0000 ca      1  GRA         0.000000
   3483 C          43.9580   49.1210    0.0000 ca      1  GRA         0.000000
   3484 C          44.6670   50.3490    0.0000 ca      1  GRA         0.000000
   3485 C          46.7940   49.1210    0.0000 ca      1  GRA         0.000000
   3486 C          46.0850   50.3490    0.0000 ca      1  GRA         0.000000
   3487 C          48.2120   49.1210    0.0000 ca      1  GRA         0.000000
   3488 C          48.9210   50.3490    0.0000 ca      1  GRA         0.000000
   3489 C          51.0480   49.1210    0.0000 ca      1  GRA         0.000000
   3490 C          50.3390   50.3490    0.0000 ca      1  GRA         0.000000
   3491 C          52.4660   49.1210    0.0000 ca      1  GRA         0.000000
   3492 C          53.1750   50.3490    0.0000 ca      1  GRA         0.000000
   3493 C          55.3020   49.1210    0.0000 ca      1  GRA         0.000000
   3494 C          54.5930   50.3490    0.0000 ca      1  GRA         0.000000
   3495 C          56.7200   49.1210    0.0000 ca      1  GRA         0.000000
   3496 C          57.4290   50.3490    0.0000 ca      1  GRA         0.000000
   3497 C          59.5560   49.1210    0.0000 ca      1  GRA         0.000000
   3498 C          58.8470   50.3490    0.0000 ca      1  GRA         0.000000
   3499 C          60.9740   49.1210    0.0000 ca      1  GRA         0.000000
   3500 C          61.6830   50.3490    0.0000 ca      1  GRA         0.000000
   3501 C          63.8100   49.1210    0.0000 ca      1  GRA         0.000000
   3502 C          63.1010   50.3490    0.0000 ca      1  GRA         0.000000
   3503 C          65.2280   49.1210    0.0000 ca      1  GRA         0.000000
   3504 C          65.9370   50.3490    0.0000 ca      1  GRA         0.000000
   3505 C          68.0640   49.1210    0.0000 ca      1  GRA         0.000000
   3506 C          67.3550   50.3490    0.0000 ca      1  GRA         0.000000
   3507 C          69.4820   49.1210    0.0000 ca      1  GRA         0.000000
   3508 C          70.1910   50.3490    0.0000 ca      1  GRA         0.000000
   3509 C          72.3180   49.1210    0.0000 ca      1  GRA         0.000000
   3510 C          71.6090   50.3490    0.0000 ca      1  GRA         0.000000
   3511 C          73.7360   49.1210    0.0000 ca      1  GRA         0.000000
   3512 C          74.4450   50.3490    0.0000 ca      1  GRA         0.000000
   3513 C          76.5720   49.1210    0.0000 ca      1  GRA         0.000000
   3514 C          75.8630   50.3490    0.0000 ca      1  GRA         0.000000
   3515 C          77.9900   49.1210    0.0000 ca      1  GRA         0.000000
   3516 C          78.6990   50.3490    0.0000 ca      1  GRA         0.000000
   3517 C          80.8260   49.1210    0.0000 ca      1  GRA         0.000000
   3518 C          80.1170   50.3490    0.0000 ca      1  GRA         0.000000
   3519 C          82.2440   49.1210    0.0000 ca      1  GRA         0.000000
   3520 C          82.9530   50.3490    0.0000 ca      1  GRA         0.000000
   3521 C          85.0800   49.1210    0.0000 ca      1  GRA         0.000000
   3522 C          84.3710   50.3490    0.0000 ca      1  GRA         0.000000
   3523 C          86.4980   49.1210    0.0000 ca      1  GRA         0.000000
   3524 C          87.2070   50.3490    0.0000 ca      1  GRA         0.000000
   3525 C          89.3340   49.1210    0.0000 ca      1  GRA         0.000000
   3526 C          88.6250   50.3490    0.0000 ca      1  GRA         0.000000
   3527 C          90.7520   49.1210    0.0000 ca      1  GRA         0.000000
   3528 C          91.4610   50.3490    0.0000 ca      1  GRA         0.000000
   3529 C          93.5880   49.1210    0.0000 ca      1  GRA         0.000000
   3530 C          92.8790   50.3490    0.0000 ca      1  GRA         0.000000
   3531 C          95.0060   49.1210    0.0000 ca      1  GRA         0.000000
   3532 C          95.7150   50.3490    0.0000 ca      1  GRA         0.000000
   3533 C          97.8420   49.1210    0.0000 ca      1  GRA         0.000000
   3534 C          97.1330   50.3490    0.0000 ca      1  GRA         0.000000
   3535 C          99.2600   49.1210    0.0000 ca      1  GRA         0.000000
   3536 C          99.9690   50.3490    0.0000 ca      1  GRA         0.000000
   3537 C         102.0960   49.1210    0.0000 ca      1  GRA         0.000000
   3538 C         101.3870   50.3490    0.0000 ca      1  GRA         0.000000
   3539 C         103.5140   49.1210    0.0000 ca      1  GRA         0.000000
   3540 C         104.2230   50.3490    0.0000 ca      1  GRA         0.000000
   3541 C         106.3500   49.1210    0.0000 ca      1  GRA         0.000000
   3542 C         105.6410   50.3490    0.0000 ca      1  GRA         0.000000
   3543 C         107.7680   49.1210    0.0000 ca      1  GRA         0.000000
   3544 C         108.4770   50.3490    0.0000 ca      1  GRA         0.000000
   3545 C         110.6040   49.1210    0.0000 ca      1  GRA         0.000000
   3546 C         109.8950   50.3490    0.0000 ca      1  GRA         0.000000
   3547 C         112.0220   49.1210    0.0000 ca      1  GRA         0.000000
   3548 C         112.7310   50.3490    0.0000 ca      1  GRA         0.000000
   3549 C         114.8580   49.1210    0.0000 ca      1  GRA         0.000000
   3550 C         114.1490   50.3490    0.0000 ca      1  GRA         0.000000
   3551 C         116.2760   49.1210    0.0000 ca      1  GRA         0.000000
   3552 C         116.9850   50.3490    0.0000 ca      1  GRA         0.000000
   3553 C         119.1120   49.1210    0.0000 ca      1  GRA         0.000000
   3554 C         118.4030   50.3490    0.0000 ca      1  GRA         0.000000
   3555 C         120.5300   49.1210    0.0000 ca      1  GRA         0.000000
   3556 C         121.2390   50.3490    0.0000 ca      1  GRA         0.000000
   3557 C         123.3660   49.1210    0.0000 ca      1  GRA         0.000000
   3558 C         122.6570   50.3490    0.0000 ca      1  GRA         0.000000
   3559 C         124.7840   49.1210    0.0000 ca      1  GRA         0.000000
   3560 C         125.4930   50.3490    0.0000 ca      1  GRA         0.000000
   3561 C         127.6200   49.1210    0.0000 ca      1  GRA         0.000000
   3562 C         126.9110   50.3490    0.0000 ca      1  GRA         0.000000
   3563 C         129.0380   49.1210    0.0000 ca      1  GRA         0.000000
   3564 C         129.7470   50.3490    0.0000 ca      1  GRA         0.000000
   3565 C         131.8740   49.1210    0.0000 ca      1  GRA         0.000000
   3566 C         131.1650   50.3490    0.0000 ca      1  GRA         0.000000
   3567 C         133.2920   49.1210    0.0000 ca      1  GRA         0.000000
   3568 C         134.0010   50.3490    0.0000 ca      1  GRA         0.000000
   3569 C         136.1280   49.1210    0.0000 ca      1  GRA         0.000000
   3570 C         135.4190   50.3490    0.0000 ca      1  GRA         0.000000
   3571 C         137.5460   49.1210    0.0000 ca      1  GRA         0.000000
   3572 C         138.2550   50.3490    0.0000 ca      1  GRA         0.000000
   3573 C         140.3820   49.1210    0.0000 ca      1  GRA         0.000000
   3574 C         139.6730   50.3490    0.0000 ca      1  GRA         0.000000
   3575 C         141.8000   49.1210    0.0000 ca      1  GRA         0.000000
   3576 C         142.5090   50.3490    0.0000 ca      1  GRA         0.000000
   3577 C         144.6360   49.1210    0.0000 ca      1  GRA         0.000000
   3578 C         143.9270   50.3490    0.0000 ca      1  GRA         0.000000
   3579 C         146.0540   49.1210    0.0000 ca      1  GRA         0.000000
   3580 C         146.7630   50.3490    0.0000 ca      1  GRA         0.000000
   3581 C         148.8900   49.1210    0.0000 ca      1  GRA         0.000000
   3582 C         148.1810   50.3490    0.0000 ca      1  GRA         0.000000
   3583 C         150.3080   49.1210    0.0000 ca      1  GRA         0.000000
   3584 C         151.0170   50.3490    0.0000 ca      1  GRA         0.000000
   3585 C         153.1440   49.1210    0.0000 ca      1  GRA         0.000000
   3586 C         152.4350   50.3490    0.0000 ca      1  GRA         0.000000
   3587 C         154.5620   49.1210    0.0000 ca      1  GRA         0.000000
   3588 C         155.2710   50.3490    0.0000 ca      1  GRA         0.000000
   3589 C         157.3980   49.1210    0.0000 ca      1  GRA         0.000000
   3590 C         156.6890   50.3490    0.0000 ca      1  GRA         0.000000
   3591 C         158.8160   49.1210    0.0000 ca      1  GRA         0.000000
   3592 C         159.5250   50.3490    0.0000 ca      1  GRA         0.000000
   3593 C         161.6520   49.1210    0.0000 ca      1  GRA         0.000000
   3594 C         160.9430   50.3490    0.0000 ca      1  GRA         0.000000
   3595 C         163.0700   49.1210    0.0000 ca      1  GRA         0.000000
   3596 C         163.7790   50.3490    0.0000 ca      1  GRA         0.000000
   3597 C         165.9060   49.1210    0.0000 ca      1  GRA         0.000000
   3598 C         165.1970   50.3490    0.0000 ca      1  GRA         0.000000
   3599 C         167.3240   49.1210    0.0000 ca      1  GRA         0.000000
   3600 C         168.0330   50.3490    0.0000 ca      1  GRA         0.000000
   3601 C         170.1600   49.1210    0.0000 ca      1  GRA         0.000000
   3602 C         169.4510   50.3490    0.0000 ca      1  GRA         0.000000
   3603 C         171.5780   49.1210    0.0000 ca      1  GRA         0.000000
   3604 C         172.2870   50.3490    0.0000 ca      1  GRA         0.000000
   3605 C         174.4140   49.1210    0.0000 ca      1  GRA         0.000000
   3606 C         173.7050   50.3490    0.0000 ca      1  GRA         0.000000
   3607 C         175.8320   49.1210    0.0000 ca      1  GRA         0.000000
   3608 C         176.5410   50.3490    0.0000 ca      1  GRA         0.000000
   3609 C         178.6680   49.1210    0.0000 ca      1  GRA         0.000000
   3610 C         177.9590   50.3490    0.0000 ca      1  GRA         0.000000
   3611 C         180.0860   49.1210    0.0000 ca      1  GRA         0.000000
   3612 C         180.7950   50.3490    0.0000 ca      1  GRA         0.000000
   3613 C           0.0000   51.5770    0.0000 ca      1  GRA         0.000000
   3614 C          -0.7090   52.8050    0.0000 ca      1  GRA         0.000000
   3615 C           1.4180   51.5770    0.0000 ca      1  GRA         0.000000
   3616 C           2.1270   52.8050    0.0000 ca      1  GRA         0.000000
   3617 C           4.2540   51.5770    0.0000 ca      1  GRA         0.000000
   3618 C           3.5450   52.8050    0.0000 ca      1  GRA         0.000000
   3619 C           5.6720   51.5770    0.0000 ca      1  GRA         0.000000
   3620 C           6.3810   52.8050    0.0000 ca      1  GRA         0.000000
   3621 C           8.5080   51.5770    0.0000 ca      1  GRA         0.000000
   3622 C           7.7990   52.8050    0.0000 ca      1  GRA         0.000000
   3623 C           9.9260   51.5770    0.0000 ca      1  GRA         0.000000
   3624 C          10.6350   52.8050    0.0000 ca      1  GRA         0.000000
   3625 C          12.7620   51.5770    0.0000 ca      1  GRA         0.000000
   3626 C          12.0530   52.8050    0.0000 ca      1  GRA         0.000000
   3627 C          14.1800   51.5770    0.0000 ca      1  GRA         0.000000
   3628 C          14.8890   52.8050    0.0000 ca      1  GRA         0.000000
   3629 C          17.0160   51.5770    0.0000 ca      1  GRA         0.000000
   3630 C          16.3070   52.8050    0.0000 ca      1  GRA         0.000000
   3631 C          18.4340   51.5770    0.0000 ca      1  GRA         0.000000
   3632 C          19.1430   52.8050    0.0000 ca      1  GRA         0.000000
   3633 C          21.2700   51.5770    0.0000 ca      1  GRA         0.000000
   3634 C          20.5610   52.8050    0.0000 ca      1  GRA         0.000000
   3635 C          22.6880   51.5770    0.0000 ca      1  GRA         0.000000
   3636 C          23.3970   52.8050    0.0000 ca      1  GRA         0.000000
   3637 C          25.5240   51.5770    0.0000 ca      1  GRA         0.000000
   3638 C          24.8150   52.8050    0.0000 ca      1  GRA         0.000000
   3639 C          26.9420   51.5770    0.0000 ca      1  GRA         0.000000
   3640 C          27.6510   52.8050    0.0000 ca      1  GRA         0.000000
   3641 C          29.7780   51.5770    0.0000 ca      1  GRA         0.000000
   3642 C          29.0690   52.8050    0.0000 ca      1  GRA         0.000000
   3643 C          31.1960   51.5770    0.0000 ca      1  GRA         0.000000
   3644 C          31.9050   52.8050    0.0000 ca      1  GRA         0.000000
   3645 C          34.0320   51.5770    0.0000 ca      1  GRA         0.000000
   3646 C          33.3230   52.8050    0.0000 ca      1  GRA         0.000000
   3647 C          35.4500   51.5770    0.0000 ca      1  GRA         0.000000
   3648 C          36.1590   52.8050    0.0000 ca      1  GRA         0.000000
   3649 C          38.2860   51.5770    0.0000 ca      1  GRA         0.000000
   3650 C          37.5770   52.8050    0.0000 ca      1  GRA         0.000000
   3651 C          39.7040   51.5770    0.0000 ca      1  GRA         0.000000
   3652 C          40.4130   52.8050    0.0000 ca      1  GRA         0.000000
   3653 C          42.5400   51.5770    0.0000 ca      1  GRA         0.000000
   3654 C          41.8310   52.8050    0.0000 ca      1  GRA         0.000000
   3655 C          43.9580   51.5770    0.0000 ca      1  GRA         0.000000
   3656 C          44.6670   52.8050    0.0000 ca      1  GRA         0.000000
   3657 C          46.7940   51.5770    0.0000 ca      1  GRA         0.000000
   3658 C          46.0850   52.8050    0.0000 ca      1  GRA         0.000000
   3659 C          48.2120   51.5770    0.0000 ca      1  GRA         0.000000
   3660 C          48.9210   52.8050    0.0000 ca      1  GRA         0.000000
   3661 C          51.0480   51.5770    0.0000 ca      1  GRA         0.000000
   3662 C          50.3390   52.8050    0.0000 ca      1  GRA         0.000000
   3663 C          52.4660   51.5770    0.0000 ca      1  GRA         0.000000
   3664 C          53.1750   52.8050    0.0000 ca      1  GRA         0.000000
   3665 C          55.3020   51.5770    0.0000 ca      1  GRA         0.000000
   3666 C          54.5930   52.8050    0.0000 ca      1  GRA         0.000000
   3667 C          56.7200   51.5770    0.0000 ca      1  GRA         0.000000
   3668 C          57.4290   52.8050    0.0000 ca      1  GRA         0.000000
   3669 C          59.5560   51.5770    0.0000 ca      1  GRA         0.000000
   3670 C          58.8470   52.8050    0.0000 ca      1  GRA         0.000000
   3671 C          60.9740   51.5770    0.0000 ca      1  GRA         0.000000
   3672 C          61.6830   52.8050    0.0000 ca      1  GRA         0.000000
   3673 C          63.8100   51.5770    0.0000 ca      1  GRA         0.000000
   3674 C          63.1010   52.8050    0.0000 ca      1  GRA         0.000000
   3675 C          65.2280   51.5770    0.0000 ca      1  GRA         0.000000
   3676 C          65.9370   52.8050    0.0000 ca      1  GRA         0.000000
   3677 C          68.0640   51.5770    0.0000 ca      1  GRA         0.000000
   3678 C          67.3550   52.8050    0.0000 ca      1  GRA         0.000000
   3679 C          69.4820   51.5770    0.0000 ca      1  GRA         0.000000
   3680 C          70.1910   52.8050    0.0000 ca      1  GRA         0.000000
   3681 C          72.3180   51.5770    0.0000 ca      1  GRA         0.000000
   3682 C          71.6090   52.8050    0.0000 ca      1  GRA         0.000000
   3683 C          73.7360   51.5770    0.0000 ca      1  GRA         0.000000
   3684 C          74.4450   52.8050    0.0000 ca      1  GRA         0.000000
   3685 C          76.5720   51.5770    0.0000 ca      1  GRA         0.000000
   3686 C          75.8630   52.8050    0.0000 ca      1  GRA         0.000000
   3687 C          77.9900   51.5770    0.0000 ca      1  GRA         0.000000
   3688 C          78.6990   52.8050    0.0000 ca      1  GRA         0.000000
   3689 C          80.8260   51.5770    0.0000 ca      1  GRA         0.000000
   3690 C          80.1170   52.8050    0.0000 ca      1  GRA         0.000000
   3691 C          82.2440   51.5770    0.0000 ca      1  GRA         0.000000
   3692 C          82.9530   52.8050    0.0000 ca      1  GRA         0.000000
   3693 C          85.0800   51.5770    0.0000 ca      1  GRA         0.000000
   3694 C          84.3710   52.8050    0.0000 ca      1  GRA         0.000000
   3695 C          86.4980   51.5770    0.0000 ca      1  GRA         0.000000
   3696 C          87.2070   52.8050    0.0000 ca      1  GRA         0.000000
   3697 C          89.3340   51.5770    0.0000 ca      1  GRA         0.000000
   3698 C          88.6250   52.8050    0.0000 ca      1  GRA         0.000000
   3699 C          90.7520   51.5770    0.0000 ca      1  GRA         0.000000
   3700 C          91.4610   52.8050    0.0000 ca      1  GRA         0.000000
   3701 C          93.5880   51.5770    0.0000 ca      1  GRA         0.000000
   3702 C          92.8790   52.8050    0.0000 ca      1  GRA         0.000000
   3703 C          95.0060   51.5770    0.0000 ca      1  GRA         0.000000
   3704 C          95.7150   52.8050    0.0000 ca      1  GRA         0.000000
   3705 C          97.8420   51.5770    0.0000 ca      1  GRA         0.000000
   3706 C          97.1330   52.8050    0.0000 ca      1  GRA         0.000000
   3707 C          99.2600   51.5770    0.0000 ca      1  GRA         0.000000
   3708 C          99.9690   52.8050    0.0000 ca      1  GRA         0.000000
   3709 C         102.0960   51.5770    0.0000 ca      1  GRA         0.000000
   3710 C         101.3870   52.8050    0.0000 ca      1  GRA         0.000000
   3711 C         103.5140   51.5770    0.0000 ca      1  GRA         0.000000
   3712 C         104.2230   52.8050    0.0000 ca      1  GRA         0.000000
   3713 C         106.3500   51.5770    0.0000 ca      1  GRA         0.000000
   3714 C         105.6410   52.8050    0.0000 ca      1  GRA         0.000000
   3715 C         107.7680   51.5770    0.0000 ca      1  GRA         0.000000
   3716 C         108.4770   52.8050    0.0000 ca      1  GRA         0.000000
   3717 C         110.6040   51.5770    0.0000 ca      1  GRA         0.000000
   3718 C         109.8950   52.8050    0.0000 ca      1  GRA         0.000000
   3719 C         112.0220   51.5770    0.0000 ca      1  GRA         0.000000
   3720 C         112.7310   52.8050    0.0000 ca      1  GRA         0.000000
   3721 C         114.8580   51.5770    0.0000 ca      1  GRA         0.000000
   3722 C         114.1490   52.8050    0.0000 ca      1  GRA         0.000000
   3723 C         116.2760   51.5770    0.0000 ca      1  GRA         0.000000
   3724 C         116.9850   52.8050    0.0000 ca      1  GRA         0.000000
   3725 C         119.1120   51.5770    0.0000 ca      1  GRA         0.000000
   3726 C         118.4030   52.8050    0.0000 ca      1  GRA         0.000000
   3727 C         120.5300   51.5770    0.0000 ca      1  GRA         0.000000
   3728 C         121.2390   52.8050    0.0000 ca      1  GRA         0.000000
   3729 C         123.3660   51.5770    0.0000 ca      1  GRA         0.000000
   3730 C         122.6570   52.8050    0.0000 ca      1  GRA         0.000000
   3731 C         124.7840   51.5770    0.0000 ca      1  GRA         0.000000
   3732 C         125.4930   52.8050    0.0000 ca      1  GRA         0.000000
   3733 C         127.6200   51.5770    0.0000 ca      1  GRA         0.000000
   3734 C         126.9110   52.8050    0.0000 ca      1  GRA         0.000000
   3735 C         129.0380   51.5770    0.0000 ca      1  GRA         0.000000
   3736 C         129.7470   52.8050    0.0000 ca      1  GRA         0.000000
   3737 C         131.8740   51.5770    0.0000 ca      1  GRA         0.000000
   3738 C         131.1650   52.8050    0.0000 ca      1  GRA         0.000000
   3739 C         133.2920   51.5770    0.0000 ca      1  GRA         0.000000
   3740 C         134.0010   52.8050    0.0000 ca      1  GRA         0.000000
   3741 C         136.1280   51.5770    0.0000 ca      1  GRA         0.000000
   3742 C         135.4190   52.8050    0.0000 ca      1  GRA         0.000000
   3743 C         137.5460   51.5770    0.0000 ca      1  GRA         0.000000
   3744 C         138.2550   52.8050    0.0000 ca      1  GRA         0.000000
   3745 C         140.3820   51.5770    0.0000 ca      1  GRA         0.000000
   3746 C         139.6730   52.8050    0.0000 ca      1  GRA         0.000000
   3747 C         141.8000   51.5770    0.0000 ca      1  GRA         0.000000
   3748 C         142.5090   52.8050    0.0000 ca      1  GRA         0.000000
   3749 C         144.6360   51.5770    0.0000 ca      1  GRA         0.000000
   3750 C         143.9270   52.8050    0.0000 ca      1  GRA         0.000000
   3751 C         146.0540   51.5770    0.0000 ca      1  GRA         0.000000
   3752 C         146.7630   52.8050    0.0000 ca      1  GRA         0.000000
   3753 C         148.8900   51.5770    0.0000 ca      1  GRA         0.000000
   3754 C         148.1810   52.8050    0.0000 ca      1  GRA         0.000000
   3755 C         150.3080   51.5770    0.0000 ca      1  GRA         0.000000
   3756 C         151.0170   52.8050    0.0000 ca      1  GRA         0.000000
   3757 C         153.1440   51.5770    0.0000 ca      1  GRA         0.000000
   3758 C         152.4350   52.8050    0.0000 ca      1  GRA         0.000000
   3759 C         154.5620   51.5770    0.0000 ca      1  GRA         0.000000
   3760 C         155.2710   52.8050    0.0000 ca      1  GRA         0.000000
   3761 C         157.3980   51.5770    0.0000 ca      1  GRA         0.000000
   3762 C         156.6890   52.8050    0.0000 ca      1  GRA         0.000000
   3763 C         158.8160   51.5770    0.0000 ca      1  GRA         0.000000
   3764 C         159.5250   52.8050    0.0000 ca      1  GRA         0.000000
   3765 C         161.6520   51.5770    0.0000 ca      1  GRA         0.000000
   3766 C         160.9430   52.8050    0.0000 ca      1  GRA         0.000000
   3767 C         163.0700   51.5770    0.0000 ca      1  GRA         0.000000
   3768 C         163.7790   52.8050    0.0000 ca      1  GRA         0.000000
   3769 C         165.9060   51.5770    0.0000 ca      1  GRA         0.000000
   3770 C         165.1970   52.8050    0.0000 ca      1  GRA         0.000000
   3771 C         167.3240   51.5770    0.0000 ca      1  GRA         0.000000
   3772 C         168.0330   52.8050    0.0000 ca      1  GRA         0.000000
   3773 C         170.1600   51.5770    0.0000 ca      1  GRA         0.000000
   3774 C         169.4510   52.8050    0.0000 ca      1  GRA         0.000000
   3775 C         171.5780   51.5770    0.0000 ca      1  GRA         0.000000
   3776 C         172.2870   52.8050    0.0000 ca      1  GRA         0.000000
   3777 C         174.4140   51.5770    0.0000 ca      1  GRA         0.000000
   3778 C         173.7050   52.8050    0.0000 ca      1  GRA         0.000000
   3779 C         175.8320   51.5770    0.0000 ca      1  GRA         0.000000
   3780 C         176.5410   52.8050    0.0000 ca      1  GRA         0.000000
   3781 C         178.6680   51.5770    0.0000 ca      1  GRA         0.000000
   3782 C         177.9590   52.8050    0.0000 ca      1  GRA         0.000000
   3783 C         180.0860   51.5770    0.0000 ca      1  GRA         0.000000
   3784 C         180.7950   52.8050    0.0000 ca      1  GRA         0.000000
   3785 C           0.0000   54.0331    0.0000 ca      1  GRA         0.000000
   3786 C          -0.7090   55.2611    0.0000 ca      1  GRA         0.000000
   3787 C           1.4180   54.0331    0.0000 ca      1  GRA         0.000000
   3788 C           2.1270   55.2611    0.0000 ca      1  GRA         0.000000
   3789 C           4.2540   54.0331    0.0000 ca      1  GRA         0.000000
   3790 C           3.5450   55.2611    0.0000 ca      1  GRA         0.000000
   3791 C           5.6720   54.0331    0.0000 ca      1  GRA         0.000000
   3792 C           6.3810   55.2611    0.0000 ca      1  GRA         0.000000
   3793 C           8.5080   54.0331    0.0000 ca      1  GRA         0.000000
   3794 C           7.7990   55.2611    0.0000 ca      1  GRA         0.000000
   3795 C           9.9260   54.0331    0.0000 ca      1  GRA         0.000000
   3796 C          10.6350   55.2611    0.0000 ca      1  GRA         0.000000
   3797 C          12.7620   54.0331    0.0000 ca      1  GRA         0.000000
   3798 C          12.0530   55.2611    0.0000 ca      1  GRA         0.000000
   3799 C          14.1800   54.0331    0.0000 ca      1  GRA         0.000000
   3800 C          14.8890   55.2611    0.0000 ca      1  GRA         0.000000
   3801 C          17.0160   54.0331    0.0000 ca      1  GRA         0.000000
   3802 C          16.3070   55.2611    0.0000 ca      1  GRA         0.000000
   3803 C          18.4340   54.0331    0.0000 ca      1  GRA         0.000000
   3804 C          19.1430   55.2611    0.0000 ca      1  GRA         0.000000
   3805 C          21.2700   54.0331    0.0000 ca      1  GRA         0.000000
   3806 C          20.5610   55.2611    0.0000 ca      1  GRA         0.000000
   3807 C          22.6880   54.0331    0.0000 ca      1  GRA         0.000000
   3808 C          23.3970   55.2611    0.0000 ca      1  GRA         0.000000
   3809 C          25.5240   54.0331    0.0000 ca      1  GRA         0.000000
   3810 C          24.8150   55.2611    0.0000 ca      1  GRA         0.000000
   3811 C          26.9420   54.0331    0.0000 ca      1  GRA         0.000000
   3812 C          27.6510   55.2611    0.0000 ca      1  GRA         0.000000
   3813 C          29.7780   54.0331    0.0000 ca      1  GRA         0.000000
   3814 C          29.0690   55.2611    0.0000 ca      1  GRA         0.000000
   3815 C          31.1960   54.0331    0.0000 ca      1  GRA         0.000000
   3816 C          31.9050   55.2611    0.0000 ca      1  GRA         0.000000
   3817 C          34.0320   54.0331    0.0000 ca      1  GRA         0.000000
   3818 C          33.3230   55.2611    0.0000 ca      1  GRA         0.000000
   3819 C          35.4500   54.0331    0.0000 ca      1  GRA         0.000000
   3820 C          36.1590   55.2611    0.0000 ca      1  GRA         0.000000
   3821 C          38.2860   54.0331    0.0000 ca      1  GRA         0.000000
   3822 C          37.5770   55.2611    0.0000 ca      1  GRA         0.000000
   3823 C          39.7040   54.0331    0.0000 ca      1  GRA         0.000000
   3824 C          40.4130   55.2611    0.0000 ca      1  GRA         0.000000
   3825 C          42.5400   54.0331    0.0000 ca      1  GRA         0.000000
   3826 C          41.8310   55.2611    0.0000 ca      1  GRA         0.000000
   3827 C          43.9580   54.0331    0.0000 ca      1  GRA         0.000000
   3828 C          44.6670   55.2611    0.0000 ca      1  GRA         0.000000
   3829 C          46.7940   54.0331    0.0000 ca      1  GRA         0.000000
   3830 C          46.0850   55.2611    0.0000 ca      1  GRA         0.000000
   3831 C          48.2120   54.0331    0.0000 ca      1  GRA         0.000000
   3832 C          48.9210   55.2611    0.0000 ca      1  GRA         0.000000
   3833 C          51.0480   54.0331    0.0000 ca      1  GRA         0.000000
   3834 C          50.3390   55.2611    0.0000 ca      1  GRA         0.000000
   3835 C          52.4660   54.0331    0.0000 ca      1  GRA         0.000000
   3836 C          53.1750   55.2611    0.0000 ca      1  GRA         0.000000
   3837 C          55.3020   54.0331    0.0000 ca      1  GRA         0.000000
   3838 C          54.5930   55.2611    0.0000 ca      1  GRA         0.000000
   3839 C          56.7200   54.0331    0.0000 ca      1  GRA         0.000000
   3840 C          57.4290   55.2611    0.0000 ca      1  GRA         0.000000
   3841 C          59.5560   54.0331    0.0000 ca      1  GRA         0.000000
   3842 C          58.8470   55.2611    0.0000 ca      1  GRA         0.000000
   3843 C          60.9740   54.0331    0.0000 ca      1  GRA         0.000000
   3844 C          61.6830   55.2611    0.0000 ca      1  GRA         0.000000
   3845 C          63.8100   54.0331    0.0000 ca      1  GRA         0.000000
   3846 C          63.1010   55.2611    0.0000 ca      1  GRA         0.000000
   3847 C          65.2280   54.0331    0.0000 ca      1  GRA         0.000000
   3848 C          65.9370   55.2611    0.0000 ca      1  GRA         0.000000
   3849 C          68.0640   54.0331    0.0000 ca      1  GRA         0.000000
   3850 C          67.3550   55.2611    0.0000 ca      1  GRA         0.000000
   3851 C          69.4820   54.0331    0.0000 ca      1  GRA         0.000000
   3852 C          70.1910   55.2611    0.0000 ca      1  GRA         0.000000
   3853 C          72.3180   54.0331    0.0000 ca      1  GRA         0.000000
   3854 C          71.6090   55.2611    0.0000 ca      1  GRA         0.000000
   3855 C          73.7360   54.0331    0.0000 ca      1  GRA         0.000000
   3856 C          74.4450   55.2611    0.0000 ca      1  GRA         0.000000
   3857 C          76.5720   54.0331    0.0000 ca      1  GRA         0.000000
   3858 C          75.8630   55.2611    0.0000 ca      1  GRA         0.000000
   3859 C          77.9900   54.0331    0.0000 ca      1  GRA         0.000000
   3860 C          78.6990   55.2611    0.0000 ca      1  GRA         0.000000
   3861 C          80.8260   54.0331    0.0000 ca      1  GRA         0.000000
   3862 C          80.1170   55.2611    0.0000 ca      1  GRA         0.000000
   3863 C          82.2440   54.0331    0.0000 ca      1  GRA         0.000000
   3864 C          82.9530   55.2611    0.0000 ca      1  GRA         0.000000
   3865 C          85.0800   54.0331    0.0000 ca      1  GRA         0.000000
   3866 C          84.3710   55.2611    0.0000 ca      1  GRA         0.000000
   3867 C          86.4980   54.0331    0.0000 ca      1  GRA         0.000000
   3868 C          87.2070   55.2611    0.0000 ca      1  GRA         0.000000
   3869 C          89.3340   54.0331    0.0000 ca      1  GRA         0.000000
   3870 C          88.6250   55.2611    0.0000 ca      1  GRA         0.000000
   3871 C          90.7520   54.0331    0.0000 ca      1  GRA         0.000000
   3872 C          91.4610   55.2611    0.0000 ca      1  GRA         0.000000
   3873 C          93.5880   54.0331    0.0000 ca      1  GRA         0.000000
   3874 C          92.8790   55.2611    0.0000 ca      1  GRA         0.000000
   3875 C          95.0060   54.0331    0.0000 ca      1  GRA         0.000000
   3876 C          95.7150   55.2611    0.0000 ca      1  GRA         0.000000
   3877 C          97.8420   54.0331    0.0000 ca      1  GRA         0.000000
   3878 C          97.1330   55.2611    0.0000 ca      1  GRA         0.000000
   3879 C          99.2600   54.0331    0.0000 ca      1  GRA         0.000000
   3880 C          99.9690   55.2611    0.0000 ca      1  GRA         0.000000
   3881 C         102.0960   54.0331    0.0000 ca      1  GRA         0.000000
   3882 C         101.3870   55.2611    0.0000 ca      1  GRA         0.000000
   3883 C         103.5140   54.0331    0.0000 ca      1  GRA         0.000000
   3884 C         104.2230   55.2611    0.0000 ca      1  GRA         0.000000
   3885 C         106.3500   54.0331    0.0000 ca      1  GRA         0.000000
   3886 C         105.6410   55.2611    0.0000 ca      1  GRA         0.000000
   3887 C         107.7680   54.0331    0.0000 ca      1  GRA         0.000000
   3888 C         108.4770   55.2611    0.0000 ca      1  GRA         0.000000
   3889 C         110.6040   54.0331    0.0000 ca      1  GRA         0.000000
   3890 C         109.8950   55.2611    0.0000 ca      1  GRA         0.000000
   3891 C         112.0220   54.0331    0.0000 ca      1  GRA         0.000000
   3892 C         112.7310   55.2611    0.0000 ca      1  GRA         0.000000
   3893 C         114.8580   54.0331    0.0000 ca      1  GRA         0.000000
   3894 C         114.1490   55.2611    0.0000 ca      1  GRA         0.000000
   3895 C         116.2760   54.0331    0.0000 ca      1  GRA         0.000000
   3896 C         116.9850   55.2611    0.0000 ca      1  GRA         0.000000
   3897 C         119.1120   54.0331    0.0000 ca      1  GRA         0.000000
   3898 C         118.4030   55.2611    0.0000 ca      1  GRA         0.000000
   3899 C         120.5300   54.0331    0.0000 ca      1  GRA         0.000000
   3900 C         121.2390   55.2611    0.0000 ca      1  GRA         0.000000
   3901 C         123.3660   54.0331    0.0000 ca      1  GRA         0.000000
   3902 C         122.6570   55.2611    0.0000 ca      1  GRA         0.000000
   3903 C         124.7840   54.0331    0.0000 ca      1  GRA         0.000000
   3904 C         125.4930   55.2611    0.0000 ca      1  GRA         0.000000
   3905 C         127.6200   54.0331    0.0000 ca      1  GRA         0.000000
   3906 C         126.9110   55.2611    0.0000 ca      1  GRA         0.000000
   3907 C         129.0380   54.0331    0.0000 ca      1  GRA         0.000000
   3908 C         129.7470   55.2611    0.0000 ca      1  GRA         0.000000
   3909 C         131.8740   54.0331    0.0000 ca      1  GRA         0.000000
   3910 C         131.1650   55.2611    0.0000 ca      1  GRA         0.000000
   3911 C         133.2920   54.0331    0.0000 ca      1  GRA         0.000000
   3912 C         134.0010   55.2611    0.0000 ca      1  GRA         0.000000
   3913 C         136.1280   54.0331    0.0000 ca      1  GRA         0.000000
   3914 C         135.4190   55.2611    0.0000 ca      1  GRA         0.000000
   3915 C         137.5460   54.0331    0.0000 ca      1  GRA         0.000000
   3916 C         138.2550   55.2611    0.0000 ca      1  GRA         0.000000
   3917 C         140.3820   54.0331    0.0000 ca      1  GRA         0.000000
   3918 C         139.6730   55.2611    0.0000 ca      1  GRA         0.000000
   3919 C         141.8000   54.0331    0.0000 ca      1  GRA         0.000000
   3920 C         142.5090   55.2611    0.0000 ca      1  GRA         0.000000
   3921 C         144.6360   54.0331    0.0000 ca      1  GRA         0.000000
   3922 C         143.9270   55.2611    0.0000 ca      1  GRA         0.000000
   3923 C         146.0540   54.0331    0.0000 ca      1  GRA         0.000000
   3924 C         146.7630   55.2611    0.0000 ca      1  GRA         0.000000
   3925 C         148.8900   54.0331    0.0000 ca      1  GRA         0.000000
   3926 C         148.1810   55.2611    0.0000 ca      1  GRA         0.000000
   3927 C         150.3080   54.0331    0.0000 ca      1  GRA         0.000000
   3928 C         151.0170   55.2611    0.0000 ca      1  GRA         0.000000
   3929 C         153.1440   54.0331    0.0000 ca      1  GRA         0.000000
   3930 C         152.4350   55.2611    0.0000 ca      1  GRA         0.000000
   3931 C         154.5620   54.0331    0.0000 ca      1  GRA         0.000000
   3932 C         155.2710   55.2611    0.0000 ca      1  GRA         0.000000
   3933 C         157.3980   54.0331    0.0000 ca      1  GRA         0.000000
   3934 C         156.6890   55.2611    0.0000 ca      1  GRA         0.000000
   3935 C         158.8160   54.0331    0.0000 ca      1  GRA         0.000000
   3936 C         159.5250   55.2611    0.0000 ca      1  GRA         0.000000
   3937 C         161.6520   54.0331    0.0000 ca      1  GRA         0.000000
   3938 C         160.9430   55.2611    0.0000 ca      1  GRA         0.000000
   3939 C         163.0700   54.0331    0.0000 ca      1  GRA         0.000000
   3940 C         163.7790   55.2611    0.0000 ca      1  GRA         0.000000
   3941 C         165.9060   54.0331    0.0000 ca      1  GRA         0.000000
   3942 C         165.1970   55.2611    0.0000 ca      1  GRA         0.000000
   3943 C         167.3240   54.0331    0.0000 ca      1  GRA         0.000000
   3944 C         168.0330   55.2611    0.0000 ca      1  GRA         0.000000
   3945 C         170.1600   54.0331    0.0000 ca      1  GRA         0.000000
   3946 C         169.4510   55.2611    0.0000 ca      1  GRA         0.000000
   3947 C         171.5780   54.0331    0.0000 ca      1  GRA         0.000000
   3948 C         172.2870   55.2611    0.0000 ca      1  GRA         0.000000
   3949 C         174.4140   54.0331    0.0000 ca      1  GRA         0.000000
   3950 C         173.7050   55.2611    0.0000 ca      1  GRA         0.000000
   3951 C         175.8320   54.0331    0.0000 ca      1  GRA         0.000000
   3952 C         176.5410   55.2611    0.0000 ca      1  GRA         0.000000
   3953 C         178.6680   54.0331    0.0000 ca      1  GRA         0.000000
   3954 C         177.9590   55.2611    0.0000 ca      1  GRA         0.000000
   3955 C         180.0860   54.0331    0.0000 ca      1  GRA         0.000000
   3956 C         180.7950   55.2611    0.0000 ca      1  GRA         0.000000
   3957 C           0.0000   56.4891    0.0000 ca      1  GRA         0.000000
   3958 C          -0.7090   57.7171    0.0000 ca      1  GRA         0.000000
   3959 C           1.4180   56.4891    0.0000 ca      1  GRA         0.000000
   3960 C           2.1270   57.7171    0.0000 ca      1  GRA         0.000000
   3961 C           4.2540   56.4891    0.0000 ca      1  GRA         0.000000
   3962 C           3.5450   57.7171    0.0000 ca      1  GRA         0.000000
   3963 C           5.6720   56.4891    0.0000 ca      1  GRA         0.000000
   3964 C           6.3810   57.7171    0.0000 ca      1  GRA         0.000000
   3965 C           8.5080   56.4891    0.0000 ca      1  GRA         0.000000
   3966 C           7.7990   57.7171    0.0000 ca      1  GRA         0.000000
   3967 C           9.9260   56.4891    0.0000 ca      1  GRA         0.000000
   3968 C          10.6350   57.7171    0.0000 ca      1  GRA         0.000000
   3969 C          12.7620   56.4891    0.0000 ca      1  GRA         0.000000
   3970 C          12.0530   57.7171    0.0000 ca      1  GRA         0.000000
   3971 C          14.1800   56.4891    0.0000 ca      1  GRA         0.000000
   3972 C          14.8890   57.7171    0.0000 ca      1  GRA         0.000000
   3973 C          17.0160   56.4891    0.0000 ca      1  GRA         0.000000
   3974 C          16.3070   57.7171    0.0000 ca      1  GRA         0.000000
   3975 C          18.4340   56.4891    0.0000 ca      1  GRA         0.000000
   3976 C          19.1430   57.7171    0.0000 ca      1  GRA         0.000000
   3977 C          21.2700   56.4891    0.0000 ca      1  GRA         0.000000
   3978 C          20.5610   57.7171    0.0000 ca      1  GRA         0.000000
   3979 C          22.6880   56.4891    0.0000 ca      1  GRA         0.000000
   3980 C          23.3970   57.7171    0.0000 ca      1  GRA         0.000000
   3981 C          25.5240   56.4891    0.0000 ca      1  GRA         0.000000
   3982 C          24.8150   57.7171    0.0000 ca      1  GRA         0.000000
   3983 C          26.9420   56.4891    0.0000 ca      1  GRA         0.000000
   3984 C          27.6510   57.7171    0.0000 ca      1  GRA         0.000000
   3985 C          29.7780   56.4891    0.0000 ca      1  GRA         0.000000
   3986 C          29.0690   57.7171    0.0000 ca      1  GRA         0.000000
   3987 C          31.1960   56.4891    0.0000 ca      1  GRA         0.000000
   3988 C          31.9050   57.7171    0.0000 ca      1  GRA         0.000000
   3989 C          34.0320   56.4891    0.0000 ca      1  GRA         0.000000
   3990 C          33.3230   57.7171    0.0000 ca      1  GRA         0.000000
   3991 C          35.4500   56.4891    0.0000 ca      1  GRA         0.000000
   3992 C          36.1590   57.7171    0.0000 ca      1  GRA         0.000000
   3993 C          38.2860   56.4891    0.0000 ca      1  GRA         0.000000
   3994 C          37.5770   57.7171    0.0000 ca      1  GRA         0.000000
   3995 C          39.7040   56.4891    0.0000 ca      1  GRA         0.000000
   3996 C          40.4130   57.7171    0.0000 ca      1  GRA         0.000000
   3997 C          42.5400   56.4891    0.0000 ca      1  GRA         0.000000
   3998 C          41.8310   57.7171    0.0000 ca      1  GRA         0.000000
   3999 C          43.9580   56.4891    0.0000 ca      1  GRA         0.000000
   4000 C          44.6670   57.7171    0.0000 ca      1  GRA         0.000000
   4001 C          46.7940   56.4891    0.0000 ca      1  GRA         0.000000
   4002 C          46.0850   57.7171    0.0000 ca      1  GRA         0.000000
   4003 C          48.2120   56.4891    0.0000 ca      1  GRA         0.000000
   4004 C          48.9210   57.7171    0.0000 ca      1  GRA         0.000000
   4005 C          51.0480   56.4891    0.0000 ca      1  GRA         0.000000
   4006 C          50.3390   57.7171    0.0000 ca      1  GRA         0.000000
   4007 C          52.4660   56.4891    0.0000 ca      1  GRA         0.000000
   4008 C          53.1750   57.7171    0.0000 ca      1  GRA         0.000000
   4009 C          55.3020   56.4891    0.0000 ca      1  GRA         0.000000
   4010 C          54.5930   57.7171    0.0000 ca      1  GRA         0.000000
   4011 C          56.7200   56.4891    0.0000 ca      1  GRA         0.000000
   4012 C          57.4290   57.7171    0.0000 ca      1  GRA         0.000000
   4013 C          59.5560   56.4891    0.0000 ca      1  GRA         0.000000
   4014 C          58.8470   57.7171    0.0000 ca      1  GRA         0.000000
   4015 C          60.9740   56.4891    0.0000 ca      1  GRA         0.000000
   4016 C          61.6830   57.7171    0.0000 ca      1  GRA         0.000000
   4017 C          63.8100   56.4891    0.0000 ca      1  GRA         0.000000
   4018 C          63.1010   57.7171    0.0000 ca      1  GRA         0.000000
   4019 C          65.2280   56.4891    0.0000 ca      1  GRA         0.000000
   4020 C          65.9370   57.7171    0.0000 ca      1  GRA         0.000000
   4021 C          68.0640   56.4891    0.0000 ca      1  GRA         0.000000
   4022 C          67.3550   57.7171    0.0000 ca      1  GRA         0.000000
   4023 C          69.4820   56.4891    0.0000 ca      1  GRA         0.000000
   4024 C          70.1910   57.7171    0.0000 ca      1  GRA         0.000000
   4025 C          72.3180   56.4891    0.0000 ca      1  GRA         0.000000
   4026 C          71.6090   57.7171    0.0000 ca      1  GRA         0.000000
   4027 C          73.7360   56.4891    0.0000 ca      1  GRA         0.000000
   4028 C          74.4450   57.7171    0.0000 ca      1  GRA         0.000000
   4029 C          76.5720   56.4891    0.0000 ca      1  GRA         0.000000
   4030 C          75.8630   57.7171    0.0000 ca      1  GRA         0.000000
   4031 C          77.9900   56.4891    0.0000 ca      1  GRA         0.000000
   4032 C          78.6990   57.7171    0.0000 ca      1  GRA         0.000000
   4033 C          80.8260   56.4891    0.0000 ca      1  GRA         0.000000
   4034 C          80.1170   57.7171    0.0000 ca      1  GRA         0.000000
   4035 C          82.2440   56.4891    0.0000 ca      1  GRA         0.000000
   4036 C          82.9530   57.7171    0.0000 ca      1  GRA         0.000000
   4037 C          85.0800   56.4891    0.0000 ca      1  GRA         0.000000
   4038 C          84.3710   57.7171    0.0000 ca      1  GRA         0.000000
   4039 C          86.4980   56.4891    0.0000 ca      1  GRA         0.000000
   4040 C          87.2070   57.7171    0.0000 ca      1  GRA         0.000000
   4041 C          89.3340   56.4891    0.0000 ca      1  GRA         0.000000
   4042 C          88.6250   57.7171    0.0000 ca      1  GRA         0.000000
   4043 C          90.7520   56.4891    0.0000 ca      1  GRA         0.000000
   4044 C          91.4610   57.7171    0.0000 ca      1  GRA         0.000000
   4045 C          93.5880   56.4891    0.0000 ca      1  GRA         0.000000
   4046 C          92.8790   57.7171    0.0000 ca      1  GRA         0.000000
   4047 C          95.0060   56.4891    0.0000 ca      1  GRA         0.000000
   4048 C          95.7150   57.7171    0.0000 ca      1  GRA         0.000000
   4049 C          97.8420   56.4891    0.0000 ca      1  GRA         0.000000
   4050 C          97.1330   57.7171    0.0000 ca      1  GRA         0.000000
   4051 C          99.2600   56.4891    0.0000 ca      1  GRA         0.000000
   4052 C          99.9690   57.7171    0.0000 ca      1  GRA         0.000000
   4053 C         102.0960   56.4891    0.0000 ca      1  GRA         0.000000
   4054 C         101.3870   57.7171    0.0000 ca      1  GRA         0.000000
   4055 C         103.5140   56.4891    0.0000 ca      1  GRA         0.000000
   4056 C         104.2230   57.7171    0.0000 ca      1  GRA         0.000000
   4057 C         106.3500   56.4891    0.0000 ca      1  GRA         0.000000
   4058 C         105.6410   57.7171    0.0000 ca      1  GRA         0.000000
   4059 C         107.7680   56.4891    0.0000 ca      1  GRA         0.000000
   4060 C         108.4770   57.7171    0.0000 ca      1  GRA         0.000000
   4061 C         110.6040   56.4891    0.0000 ca      1  GRA         0.000000
   4062 C         109.8950   57.7171    0.0000 ca      1  GRA         0.000000
   4063 C         112.0220   56.4891    0.0000 ca      1  GRA         0.000000
   4064 C         112.7310   57.7171    0.0000 ca      1  GRA         0.000000
   4065 C         114.8580   56.4891    0.0000 ca      1  GRA         0.000000
   4066 C         114.1490   57.7171    0.0000 ca      1  GRA         0.000000
   4067 C         116.2760   56.4891    0.0000 ca      1  GRA         0.000000
   4068 C         116.9850   57.7171    0.0000 ca      1  GRA         0.000000
   4069 C         119.1120   56.4891    0.0000 ca      1  GRA         0.000000
   4070 C         118.4030   57.7171    0.0000 ca      1  GRA         0.000000
   4071 C         120.5300   56.4891    0.0000 ca      1  GRA         0.000000
   4072 C         121.2390   57.7171    0.0000 ca      1  GRA         0.000000
   4073 C         123.3660   56.4891    0.0000 ca      1  GRA         0.000000
   4074 C         122.6570   57.7171    0.0000 ca      1  GRA         0.000000
   4075 C         124.7840   56.4891    0.0000 ca      1  GRA         0.000000
   4076 C         125.4930   57.7171    0.0000 ca      1  GRA         0.000000
   4077 C         127.6200   56.4891    0.0000 ca      1  GRA         0.000000
   4078 C         126.9110   57.7171    0.0000 ca      1  GRA         0.000000
   4079 C         129.0380   56.4891    0.0000 ca      1  GRA         0.000000
   4080 C         129.7470   57.7171    0.0000 ca      1  GRA         0.000000
   4081 C         131.8740   56.4891    0.0000 ca      1  GRA         0.000000
   4082 C         131.1650   57.7171    0.0000 ca      1  GRA         0.000000
   4083 C         133.2920   56.4891    0.0000 ca      1  GRA         0.000000
   4084 C         134.0010   57.7171    0.0000 ca      1  GRA         0.000000
   4085 C         136.1280   56.4891    0.0000 ca      1  GRA         0.000000
   4086 C         135.4190   57.7171    0.0000 ca      1  GRA         0.000000
   4087 C         137.5460   56.4891    0.0000 ca      1  GRA         0.000000
   4088 C         138.2550   57.7171    0.0000 ca      1  GRA         0.000000
   4089 C         140.3820   56.4891    0.0000 ca      1  GRA         0.000000
   4090 C         139.6730   57.7171    0.0000 ca      1  GRA         0.000000
   4091 C         141.8000   56.4891    0.0000 ca      1  GRA         0.000000
   4092 C         142.5090   57.7171    0.0000 ca      1  GRA         0.000000
   4093 C         144.6360   56.4891    0.0000 ca      1  GRA         0.000000
   4094 C         143.9270   57.7171    0.0000 ca      1  GRA         0.000000
   4095 C         146.0540   56.4891    0.0000 ca      1  GRA         0.000000
   4096 C         146.7630   57.7171    0.0000 ca      1  GRA         0.000000
   4097 C         148.8900   56.4891    0.0000 ca      1  GRA         0.000000
   4098 C         148.1810   57.7171    0.0000 ca      1  GRA         0.000000
   4099 C         150.3080   56.4891    0.0000 ca      1  GRA         0.000000
   4100 C         151.0170   57.7171    0.0000 ca      1  GRA         0.000000
   4101 C         153.1440   56.4891    0.0000 ca      1  GRA         0.000000
   4102 C         152.4350   57.7171    0.0000 ca      1  GRA         0.000000
   4103 C         154.5620   56.4891    0.0000 ca      1  GRA         0.000000
   4104 C         155.2710   57.7171    0.0000 ca      1  GRA         0.000000
   4105 C         157.3980   56.4891    0.0000 ca      1  GRA         0.000000
   4106 C         156.6890   57.7171    0.0000 ca      1  GRA         0.000000
   4107 C         158.8160   56.4891    0.0000 ca      1  GRA         0.000000
   4108 C         159.5250   57.7171    0.0000 ca      1  GRA         0.000000
   4109 C         161.6520   56.4891    0.0000 ca      1  GRA         0.000000
   4110 C         160.9430   57.7171    0.0000 ca      1  GRA         0.000000
   4111 C         163.0700   56.4891    0.0000 ca      1  GRA         0.000000
   4112 C         163.7790   57.7171    0.0000 ca      1  GRA         0.000000
   4113 C         165.9060   56.4891    0.0000 ca      1  GRA         0.000000
   4114 C         165.1970   57.7171    0.0000 ca      1  GRA         0.000000
   4115 C         167.3240   56.4891    0.0000 ca      1  GRA         0.000000
   4116 C         168.0330   57.7171    0.0000 ca      1  GRA         0.000000
   4117 C         170.1600   56.4891    0.0000 ca      1  GRA         0.000000
   4118 C         169.4510   57.7171    0.0000 ca      1  GRA         0.000000
   4119 C         171.5780   56.4891    0.0000 ca      1  GRA         0.000000
   4120 C         172.2870   57.7171    0.0000 ca      1  GRA         0.000000
   4121 C         174.4140   56.4891    0.0000 ca      1  GRA         0.000000
   4122 C         173.7050   57.7171    0.0000 ca      1  GRA         0.000000
   4123 C         175.8320   56.4891    0.0000 ca      1  GRA         0.000000
   4124 C         176.5410   57.7171    0.0000 ca      1  GRA         0.000000
   4125 C         178.6680   56.4891    0.0000 ca      1  GRA         0.000000
   4126 C         177.9590   57.7171    0.0000 ca      1  GRA         0.000000
   4127 C         180.0860   56.4891    0.0000 ca      1  GRA         0.000000
   4128 C         180.7950   57.7171    0.0000 ca      1  GRA         0.000000
   4129 C           0.0000   58.9452    0.0000 ca      1  GRA         0.000000
   4130 C          -0.7090   60.1732    0.0000 ca      1  GRA         0.000000
   4131 C           1.4180   58.9452    0.0000 ca      1  GRA         0.000000
   4132 C           2.1270   60.1732    0.0000 ca      1  GRA         0.000000
   4133 C           4.2540   58.9452    0.0000 ca      1  GRA         0.000000
   4134 C           3.5450   60.1732    0.0000 ca      1  GRA         0.000000
   4135 C           5.6720   58.9452    0.0000 ca      1  GRA         0.000000
   4136 C           6.3810   60.1732    0.0000 ca      1  GRA         0.000000
   4137 C           8.5080   58.9452    0.0000 ca      1  GRA         0.000000
   4138 C           7.7990   60.1732    0.0000 ca      1  GRA         0.000000
   4139 C           9.9260   58.9452    0.0000 ca      1  GRA         0.000000
   4140 C          10.6350   60.1732    0.0000 ca      1  GRA         0.000000
   4141 C          12.7620   58.9452    0.0000 ca      1  GRA         0.000000
   4142 C          12.0530   60.1732    0.0000 ca      1  GRA         0.000000
   4143 C          14.1800   58.9452    0.0000 ca      1  GRA         0.000000
   4144 C          14.8890   60.1732    0.0000 ca      1  GRA         0.000000
   4145 C          17.0160   58.9452    0.0000 ca      1  GRA         0.000000
   4146 C          16.3070   60.1732    0.0000 ca      1  GRA         0.000000
   4147 C          18.4340   58.9452    0.0000 ca      1  GRA         0.000000
   4148 C          19.1430   60.1732    0.0000 ca      1  GRA         0.000000
   4149 C          21.2700   58.9452    0.0000 ca      1  GRA         0.000000
   4150 C          20.5610   60.1732    0.0000 ca      1  GRA         0.000000
   4151 C          22.6880   58.9452    0.0000 ca      1  GRA         0.000000
   4152 C          23.3970   60.1732    0.0000 ca      1  GRA         0.000000
   4153 C          25.5240   58.9452    0.0000 ca      1  GRA         0.000000
   4154 C          24.8150   60.1732    0.0000 ca      1  GRA         0.000000
   4155 C          26.9420   58.9452    0.0000 ca      1  GRA         0.000000
   4156 C          27.6510   60.1732    0.0000 ca      1  GRA         0.000000
   4157 C          29.7780   58.9452    0.0000 ca      1  GRA         0.000000
   4158 C          29.0690   60.1732    0.0000 ca      1  GRA         0.000000
   4159 C          31.1960   58.9452    0.0000 ca      1  GRA         0.000000
   4160 C          31.9050   60.1732    0.0000 ca      1  GRA         0.000000
   4161 C          34.0320   58.9452    0.0000 ca      1  GRA         0.000000
   4162 C          33.3230   60.1732    0.0000 ca      1  GRA         0.000000
   4163 C          35.4500   58.9452    0.0000 ca      1  GRA         0.000000
   4164 C          36.1590   60.1732    0.0000 ca      1  GRA         0.000000
   4165 C          38.2860   58.9452    0.0000 ca      1  GRA         0.000000
   4166 C          37.5770   60.1732    0.0000 ca      1  GRA         0.000000
   4167 C          39.7040   58.9452    0.0000 ca      1  GRA         0.000000
   4168 C          40.4130   60.1732    0.0000 ca      1  GRA         0.000000
   4169 C          42.5400   58.9452    0.0000 ca      1  GRA         0.000000
   4170 C          41.8310   60.1732    0.0000 ca      1  GRA         0.000000
   4171 C          43.9580   58.9452    0.0000 ca      1  GRA         0.000000
   4172 C          44.6670   60.1732    0.0000 ca      1  GRA         0.000000
   4173 C          46.7940   58.9452    0.0000 ca      1  GRA         0.000000
   4174 C          46.0850   60.1732    0.0000 ca      1  GRA         0.000000
   4175 C          48.2120   58.9452    0.0000 ca      1  GRA         0.000000
   4176 C          48.9210   60.1732    0.0000 ca      1  GRA         0.000000
   4177 C          51.0480   58.9452    0.0000 ca      1  GRA         0.000000
   4178 C          50.3390   60.1732    0.0000 ca      1  GRA         0.000000
   4179 C          52.4660   58.9452    0.0000 ca      1  GRA         0.000000
   4180 C          53.1750   60.1732    0.0000 ca      1  GRA         0.000000
   4181 C          55.3020   58.9452    0.0000 ca      1  GRA         0.000000
   4182 C          54.5930   60.1732    0.0000 ca      1  GRA         0.000000
   4183 C          56.7200   58.9452    0.0000 ca      1  GRA         0.000000
   4184 C          57.4290   60.1732    0.0000 ca      1  GRA         0.000000
   4185 C          59.5560   58.9452    0.0000 ca      1  GRA         0.000000
   4186 C          58.8470   60.1732    0.0000 ca      1  GRA         0.000000
   4187 C          60.9740   58.9452    0.0000 ca      1  GRA         0.000000
   4188 C          61.6830   60.1732    0.0000 ca      1  GRA         0.000000
   4189 C          63.8100   58.9452    0.0000 ca      1  GRA         0.000000
   4190 C          63.1010   60.1732    0.0000 ca      1  GRA         0.000000
   4191 C          65.2280   58.9452    0.0000 ca      1  GRA         0.000000
   4192 C          65.9370   60.1732    0.0000 ca      1  GRA         0.000000
   4193 C          68.0640   58.9452    0.0000 ca      1  GRA         0.000000
   4194 C          67.3550   60.1732    0.0000 ca      1  GRA         0.000000
   4195 C          69.4820   58.9452    0.0000 ca      1  GRA         0.000000
   4196 C          70.1910   60.1732    0.0000 ca      1  GRA         0.000000
   4197 C          72.3180   58.9452    0.0000 ca      1  GRA         0.000000
   4198 C          71.6090   60.1732    0.0000 ca      1  GRA         0.000000
   4199 C          73.7360   58.9452    0.0000 ca      1  GRA         0.000000
   4200 C          74.4450   60.1732    0.0000 ca      1  GRA         0.000000
   4201 C          76.5720   58.9452    0.0000 ca      1  GRA         0.000000
   4202 C          75.8630   60.1732    0.0000 ca      1  GRA         0.000000
   4203 C          77.9900   58.9452    0.0000 ca      1  GRA         0.000000
   4204 C          78.6990   60.1732    0.0000 ca      1  GRA         0.000000
   4205 C          80.8260   58.9452    0.0000 ca      1  GRA         0.000000
   4206 C          80.1170   60.1732    0.0000 ca      1  GRA         0.000000
   4207 C          82.2440   58.9452    0.0000 ca      1  GRA         0.000000
   4208 C          82.9530   60.1732    0.0000 ca      1  GRA         0.000000
   4209 C          85.0800   58.9452    0.0000 ca      1  GRA         0.000000
   4210 C          84.3710   60.1732    0.0000 ca      1  GRA         0.000000
   4211 C          86.4980   58.9452    0.0000 ca      1  GRA         0.000000
   4212 C          87.2070   60.1732    0.0000 ca      1  GRA         0.000000
   4213 C          89.3340   58.9452    0.0000 ca      1  GRA         0.000000
   4214 C          88.6250   60.1732    0.0000 ca      1  GRA         0.000000
   4215 C          90.7520   58.9452    0.0000 ca      1  GRA         0.000000
   4216 C          91.4610   60.1732    0.0000 ca      1  GRA         0.000000
   4217 C          93.5880   58.9452    0.0000 ca      1  GRA         0.000000
   4218 C          92.8790   60.1732    0.0000 ca      1  GRA         0.000000
   4219 C          95.0060   58.9452    0.0000 ca      1  GRA         0.000000
   4220 C          95.7150   60.1732    0.0000 ca      1  GRA         0.000000
   4221 C          97.8420   58.9452    0.0000 ca      1  GRA         0.000000
   4222 C          97.1330   60.1732    0.0000 ca      1  GRA         0.000000
   4223 C          99.2600   58.9452    0.0000 ca      1  GRA         0.000000
   4224 C          99.9690   60.1732    0.0000 ca      1  GRA         0.000000
   4225 C         102.0960   58.9452    0.0000 ca      1  GRA         0.000000
   4226 C         101.3870   60.1732    0.0000 ca      1  GRA         0.000000
   4227 C         103.5140   58.9452    0.0000 ca      1  GRA         0.000000
   4228 C         104.2230   60.1732    0.0000 ca      1  GRA         0.000000
   4229 C         106.3500   58.9452    0.0000 ca      1  GRA         0.000000
   4230 C         105.6410   60.1732    0.0000 ca      1  GRA         0.000000
   4231 C         107.7680   58.9452    0.0000 ca      1  GRA         0.000000
   4232 C         108.4770   60.1732    0.0000 ca      1  GRA         0.000000
   4233 C         110.6040   58.9452    0.0000 ca      1  GRA         0.000000
   4234 C         109.8950   60.1732    0.0000 ca      1  GRA         0.000000
   4235 C         112.0220   58.9452    0.0000 ca      1  GRA         0.000000
   4236 C         112.7310   60.1732    0.0000 ca      1  GRA         0.000000
   4237 C         114.8580   58.9452    0.0000 ca      1  GRA         0.000000
   4238 C         114.1490   60.1732    0.0000 ca      1  GRA         0.000000
   4239 C         116.2760   58.9452    0.0000 ca      1  GRA         0.000000
   4240 C         116.9850   60.1732    0.0000 ca      1  GRA         0.000000
   4241 C         119.1120   58.9452    0.0000 ca      1  GRA         0.000000
   4242 C         118.4030   60.1732    0.0000 ca      1  GRA         0.000000
   4243 C         120.5300   58.9452    0.0000 ca      1  GRA         0.000000
   4244 C         121.2390   60.1732    0.0000 ca      1  GRA         0.000000
   4245 C         123.3660   58.9452    0.0000 ca      1  GRA         0.000000
   4246 C         122.6570   60.1732    0.0000 ca      1  GRA         0.000000
   4247 C         124.7840   58.9452    0.0000 ca      1  GRA         0.000000
   4248 C         125.4930   60.1732    0.0000 ca      1  GRA         0.000000
   4249 C         127.6200   58.9452    0.0000 ca      1  GRA         0.000000
   4250 C         126.9110   60.1732    0.0000 ca      1  GRA         0.000000
   4251 C         129.0380   58.9452    0.0000 ca      1  GRA         0.000000
   4252 C         129.7470   60.1732    0.0000 ca      1  GRA         0.000000
   4253 C         131.8740   58.9452    0.0000 ca      1  GRA         0.000000
   4254 C         131.1650   60.1732    0.0000 ca      1  GRA         0.000000
   4255 C         133.2920   58.9452    0.0000 ca      1  GRA         0.000000
   4256 C         134.0010   60.1732    0.0000 ca      1  GRA         0.000000
   4257 C         136.1280   58.9452    0.0000 ca      1  GRA         0.000000
   4258 C         135.4190   60.1732    0.0000 ca      1  GRA         0.000000
   4259 C         137.5460   58.9452    0.0000 ca      1  GRA         0.000000
   4260 C         138.2550   60.1732    0.0000 ca      1  GRA         0.000000
   4261 C         140.3820   58.9452    0.0000 ca      1  GRA         0.000000
   4262 C         139.6730   60.1732    0.0000 ca      1  GRA         0.000000
   4263 C         141.8000   58.9452    0.0000 ca      1  GRA         0.000000
   4264 C         142.5090   60.1732    0.0000 ca      1  GRA         0.000000
   4265 C         144.6360   58.9452    0.0000 ca      1  GRA         0.000000
   4266 C         143.9270   60.1732    0.0000 ca      1  GRA         0.000000
   4267 C         146.0540   58.9452    0.0000 ca      1  GRA         0.000000
   4268 C         146.7630   60.1732    0.0000 ca      1  GRA         0.000000
   4269 C         148.8900   58.9452    0.0000 ca      1  GRA         0.000000
   4270 C         148.1810   60.1732    0.0000 ca      1  GRA         0.000000
   4271 C         150.3080   58.9452    0.0000 ca      1  GRA         0.000000
   4272 C         151.0170   60.1732    0.0000 ca      1  GRA         0.000000
   4273 C         153.1440   58.9452    0.0000 ca      1  GRA         0.000000
   4274 C         152.4350   60.1732    0.0000 ca      1  GRA         0.000000
   4275 C         154.5620   58.9452    0.0000 ca      1  GRA         0.000000
   4276 C         155.2710   60.1732    0.0000 ca      1  GRA         0.000000
   4277 C         157.3980   58.9452    0.0000 ca      1  GRA         0.000000
   4278 C         156.6890   60.1732    0.0000 ca      1  GRA         0.000000
   4279 C         158.8160   58.9452    0.0000 ca      1  GRA         0.000000
   4280 C         159.5250   60.1732    0.0000 ca      1  GRA         0.000000
   4281 C         161.6520   58.9452    0.0000 ca      1  GRA         0.000000
   4282 C         160.9430   60.1732    0.0000 ca      1  GRA         0.000000
   4283 C         163.0700   58.9452    0.0000 ca      1  GRA         0.000000
   4284 C         163.7790   60.1732    0.0000 ca      1  GRA         0.000000
   4285 C         165.9060   58.9452    0.0000 ca      1  GRA         0.000000
   4286 C         165.1970   60.1732    0.0000 ca      1  GRA         0.000000
   4287 C         167.3240   58.9452    0.0000 ca      1  GRA         0.000000
   4288 C         168.0330   60.1732    0.0000 ca      1  GRA         0.000000
   4289 C         170.1600   58.9452    0.0000 ca      1  GRA         0.000000
   4290 C         169.4510   60.1732    0.0000 ca      1  GRA         0.000000
   4291 C         171.5780   58.9452    0.0000 ca      1  GRA         0.000000
   4292 C         172.2870   60.1732    0.0000 ca      1  GRA         0.000000
   4293 C         174.4140   58.9452    0.0000 ca      1  GRA         0.000000
   4294 C         173.7050   60.1732    0.0000 ca      1  GRA         0.000000
   4295 C         175.8320   58.9452    0.0000 ca      1  GRA         0.000000
   4296 C         176.5410   60.1732    0.0000 ca      1  GRA         0.000000
   4297 C         178.6680   58.9452    0.0000 ca      1  GRA         0.000000
   4298 C         177.9590   60.1732    0.0000 ca      1  GRA         0.000000
   4299 C         180.0860   58.9452    0.0000 ca      1  GRA         0.000000
   4300 C         180.7950   60.1732    0.0000 ca      1  GRA         0.000000
@<TRIPOS>BOND
    1     1     2  1
    2     1     3  1
    3     2   173  1
    4     3     4  1
    5     4     6  1
    6     4   175  1
    7     5     6  1
    8     5     7  1
    9     6   177  1
   10     7     8  1
   11     8    10  1
   12     8   179  1
   13     9    10  1
   14     9    11  1
   15    10   181  1
   16    11    12  1
   17    12    14  1
   18    12   183  1
   19    13    14  1
   20    13    15  1
   21    14   185  1
   22    15    16  1
   23    16    18  1
   24    16   187  1
   25    17    18  1
   26    17    19  1
   27    18   189  1
   28    19    20  1
   29    20    22  1
   30    20   191  1
   31    21    22  1
   32    21    23  1
   33    22   193  1
   34    23    24  1
   35    24    26  1
   36    24   195  1
   37    25    26  1
   38    25    27  1
   39    26   197  1
   40    27    28  1
   41    28    30  1
   42    28   199  1
   43    29    30  1
   44    29    31  1
   45    30   201  1
   46    31    32  1
   47    32    34  1
   48    32   203  1
   49    33    35  1
   50    33    34  1
   51    34   205  1
   52    35    36  1
   53    36    38  1
   54    36   207  1
   55    37    39  1
   56    37    38  1
   57    38   209  1
   58    39    40  1
   59    40    42  1
   60    40   211  1
   61    41    43  1
   62    41    42  1
   63    42   213  1
   64    43    44  1
   65    44    46  1
   66    44   215  1
   67    45    47  1
   68    45    46  1
   69    46   217  1
   70    47    48  1
   71    48    50  1
   72    48   219  1
   73    49    50  1
   74    49    51  1
   75    50   221  1
   76    51    52  1
   77    52    54  1
   78    52   223  1
   79    53    54  1
   80    53    55  1
   81    54   225  1
   82    55    56  1
   83    56    58  1
   84    56   227  1
   85    57    58  1
   86    57    59  1
   87    58   229  1
   88    59    60  1
   89    60    62  1
   90    60   231  1
   91    61    62  1
   92    61    63  1
   93    62   233  1
   94    63    64  1
   95    64    66  1
   96    64   235  1
   97    65    66  1
   98    65    67  1
   99    66   237  1
  100    67    68  1
  101    68    70  1
  102    68   239  1
  103    69    70  1
  104    69    71  1
  105    70   241  1
  106    71    72  1
  107    72    74  1
  108    72   243  1
  109    73    74  1
  110    73    75  1
  111    74   245  1
  112    75    76  1
  113    76    78  1
  114    76   247  1
  115    77    78  1
  116    77    79  1
  117    78   249  1
  118    79    80  1
  119    80    82  1
  120    80   251  1
  121    81    83  1
  122    81    82  1
  123    82   253  1
  124    83    84  1
  125    84    86  1
  126    84   255  1
  127    85    87  1
  128    85    86  1
  129    86   257  1
  130    87    88  1
  131    88    90  1
  132    88   259  1
  133    89    91  1
  134    89    90  1
  135    90   261  1
  136    91    92  1
  137    92    94  1
  138    92   263  1
  139    93    94  1
  140    93    95  1
  141    94   265  1
  142    95    96  1
  143    96    98  1
  144    96   267  1
  145    97    98  1
  146    97    99  1
  147    98   269  1
  148    99   100  1
  149   100   102  1
  150   100   271  1
  151   101   102  1
  152   101   103  1
  153   102   273  1
  154   103   104  1
  155   104   106  1
  156   104   275  1
  157   105   106  1
  158   105   107  1
  159   106   277  1
  160   107   108  1
  161   108   110  1
  162   108   279  1
  163   109   110  1
  164   109   111  1
  165   110   281  1
  166   111   112  1
  167   112   114  1
  168   112   283  1
  169   113   114  1
  170   113   115  1
  171   114   285  1
  172   115   116  1
  173   116   118  1
  174   116   287  1
  175   117   118  1
  176   117   119  1
  177   118   289  1
  178   119   120  1
  179   120   122  1
  180   120   291  1
  181   121   122  1
  182   121   123  1
  183   122   293  1
  184   123   124  1
  185   124   126  1
  186   124   295  1
  187   125   126  1
  188   125   127  1
  189   126   297  1
  190   127   128  1
  191   128   130  1
  192   128   299  1
  193   129   131  1
  194   129   130  1
  195   130   301  1
  196   131   132  1
  197   132   134  1
  198   132   303  1
  199   133   135  1
  200   133   134  1
  201   134   305  1
  202   135   136  1
  203   136   138  1
  204   136   307  1
  205   137   139  1
  206   137   138  1
  207   138   309  1
  208   139   140  1
  209   140   142  1
  210   140   311  1
  211   141   143  1
  212   141   142  1
  213   142   313  1
  214   143   144  1
  215   144   146  1
  216   144   315  1
  217   145   146  1
  218   145   147  1
  219   146   317  1
  220   147   148  1
  221   148   150  1
  222   148   319  1
  223   149   150  1
  224   149   151  1
  225   150   321  1
  226   151   152  1
  227   152   154  1
  228   152   323  1
  229   153   154  1
  230   153   155  1
  231   154   325  1
  232   155   156  1
  233   156   158  1
  234   156   327  1
  235   157   158  1
  236   157   159  1
  237   158   329  1
  238   159   160  1
  239   160   162  1
  240   160   331  1
  241   161   162  1
  242   161   163  1
  243   162   333  1
  244   163   164  1
  245   164   166  1
  246   164   335  1
  247   165   166  1
  248   165   167  1
  249   166   337  1
  250   167   168  1
  251   168   170  1
  252   168   339  1
  253   169   170  1
  254   169   171  1
  255   170   341  1
  256   171   172  1
  257   172   343  1
  258   173   174  1
  259   173   175  1
  260   174   345  1
  261   175   176  1
  262   176   178  1
  263   176   347  1
  264   177   178  1
  265   177   179  1
  266   178   349  1
  267   179   180  1
  268   180   182  1
  269   180   351  1
  270   181   182  1
  271   181   183  1
  272   182   353  1
  273   183   184  1
  274   184   186  1
  275   184   355  1
  276   185   186  1
  277   185   187  1
  278   186   357  1
  279   187   188  1
  280   188   190  1
  281   188   359  1
  282   189   190  1
  283   189   191  1
  284   190   361  1
  285   191   192  1
  286   192   194  1
  287   192   363  1
  288   193   194  1
  289   193   195  1
  290   194   365  1
  291   195   196  1
  292   196   198  1
  293   196   367  1
  294   197   198  1
  295   197   199  1
  296   198   369  1
  297   199   200  1
  298   200   202  1
  299   200   371  1
  300   201   202  1
  301   201   203  1
  302   202   373  1
  303   203   204  1
  304   204   206  1
  305   204   375  1
  306   205   207  1
  307   205   206  1
  308   206   377  1
  309   207   208  1
  310   208   210  1
  311   208   379  1
  312   209   211  1
  313   209   210  1
  314   210   381  1
  315   211   212  1
  316   212   214  1
  317   212   383  1
  318   213   215  1
  319   213   214  1
  320   214   385  1
  321   215   216  1
  322   216   218  1
  323   216   387  1
  324   217   218  1
  325   217   219  1
  326   218   389  1
  327   219   220  1
  328   220   222  1
  329   220   391  1
  330   221   222  1
  331   221   223  1
  332   222   393  1
  333   223   224  1
  334   224   226  1
  335   224   395  1
  336   225   226  1
  337   225   227  1
  338   226   397  1
  339   227   228  1
  340   228   230  1
  341   228   399  1
  342   229   230  1
  343   229   231  1
  344   230   401  1
  345   231   232  1
  346   232   234  1
  347   232   403  1
  348   233   234  1
  349   233   235  1
  350   234   405  1
  351   235   236  1
  352   236   238  1
  353   236   407  1
  354   237   238  1
  355   237   239  1
  356   238   409  1
  357   239   240  1
  358   240   242  1
  359   240   411  1
  360   241   242  1
  361   241   243  1
  362   242   413  1
  363   243   244  1
  364   244   246  1
  365   244   415  1
  366   245   246  1
  367   245   247  1
  368   246   417  1
  369   247   248  1
  370   248   250  1
  371   248   419  1
  372   249   250  1
  373   249   251  1
  374   250   421  1
  375   251   252  1
  376   252   254  1
  377   252   423  1
  378   253   255  1
  379   253   254  1
  380   254   425  1
  381   255   256  1
  382   256   258  1
  383   256   427  1
  384   257   259  1
  385   257   258  1
  386   258   429  1
  387   259   260  1
  388   260   262  1
  389   260   431  1
  390   261   263  1
  391   261   262  1
  392   262   433  1
  393   263   264  1
  394   264   266  1
  395   264   435  1
  396   265   267  1
  397   265   266  1
  398   266   437  1
  399   267   268  1
  400   268   270  1
  401   268   439  1
  402   269   270  1
  403   269   271  1
  404   270   441  1
  405   271   272  1
  406   272   274  1
  407   272   443  1
  408   273   274  1
  409   273   275  1
  410   274   445  1
  411   275   276  1
  412   276   278  1
  413   276   447  1
  414   277   278  1
  415   277   279  1
  416   278   449  1
  417   279   280  1
  418   280   282  1
  419   280   451  1
  420   281   282  1
  421   281   283  1
  422   282   453  1
  423   283   284  1
  424   284   286  1
  425   284   455  1
  426   285   286  1
  427   285   287  1
  428   286   457  1
  429   287   288  1
  430   288   290  1
  431   288   459  1
  432   289   290  1
  433   289   291  1
  434   290   461  1
  435   291   292  1
  436   292   294  1
  437   292   463  1
  438   293   294  1
  439   293   295  1
  440   294   465  1
  441   295   296  1
  442   296   298  1
  443   296   467  1
  444   297   298  1
  445   297   299  1
  446   298   469  1
  447   299   300  1
  448   300   302  1
  449   300   471  1
  450   301   303  1
  451   301   302  1
  452   302   473  1
  453   303   304  1
  454   304   306  1
  455   304   475  1
  456   305   307  1
  457   305   306  1
  458   306   477  1
  459   307   308  1
  460   308   310  1
  461   308   479  1
  462   309   310  1
  463   309   311  1
  464   310   481  1
  465   311   312  1
  466   312   314  1
  467   312   483  1
  468   313   315  1
  469   313   314  1
  470   314   485  1
  471   315   316  1
  472   316   318  1
  473   316   487  1
  474   317   318  1
  475   317   319  1
  476   318   489  1
  477   319   320  1
  478   320   322  1
  479   320   491  1
  480   321   322  1
  481   321   323  1
  482   322   493  1
  483   323   324  1
  484   324   326  1
  485   324   495  1
  486   325   326  1
  487   325   327  1
  488   326   497  1
  489   327   328  1
  490   328   330  1
  491   328   499  1
  492   329   330  1
  493   329   331  1
  494   330   501  1
  495   331   332  1
  496   332   334  1
  497   332   503  1
  498   333   334  1
  499   333   335  1
  500   334   505  1
  501   335   336  1
  502   336   338  1
  503   336   507  1
  504   337   338  1
  505   337   339  1
  506   338   509  1
  507   339   340  1
  508   340   342  1
  509   340   511  1
  510   341   342  1
  511   341   343  1
  512   342   513  1
  513   343   344  1
  514   344   515  1
  515   345   347  1
  516   345   346  1
  517   346   517  1
  518   347   348  1
  519   348   519  1
  520   348   350  1
  521   349   351  1
  522   349   350  1
  523   350   521  1
  524   351   352  1
  525   352   523  1
  526   352   354  1
  527   353   355  1
  528   353   354  1
  529   354   525  1
  530   355   356  1
  531   356   527  1
  532   356   358  1
  533   357   359  1
  534   357   358  1
  535   358   529  1
  536   359   360  1
  537   360   531  1
  538   360   362  1
  539   361   363  1
  540   361   362  1
  541   362   533  1
  542   363   364  1
  543   364   535  1
  544   364   366  1
  545   365   367  1
  546   365   366  1
  547   366   537  1
  548   367   368  1
  549   368   539  1
  550   368   370  1
  551   369   371  1
  552   369   370  1
  553   370   541  1
  554   371   372  1
  555   372   543  1
  556   372   374  1
  557   373   375  1
  558   373   374  1
  559   374   545  1
  560   375   376  1
  561   376   547  1
  562   376   378  1
  563   377   379  1
  564   377   378  1
  565   378   549  1
  566   379   380  1
  567   380   382  1
  568   380   551  1
  569   381   383  1
  570   381   382  1
  571   382   553  1
  572   383   384  1
  573   384   386  1
  574   384   555  1
  575   385   387  1
  576   385   386  1
  577   386   557  1
  578   387   388  1
  579   388   390  1
  580   388   559  1
  581   389   391  1
  582   389   390  1
  583   390   561  1
  584   391   392  1
  585   392   394  1
  586   392   563  1
  587   393   395  1
  588   393   394  1
  589   394   565  1
  590   395   396  1
  591   396   567  1
  592   396   398  1
  593   397   399  1
  594   397   398  1
  595   398   569  1
  596   399   400  1
  597   400   571  1
  598   400   402  1
  599   401   403  1
  600   401   402  1
  601   402   573  1
  602   403   404  1
  603   404   575  1
  604   404   406  1
  605   405   407  1
  606   405   406  1
  607   406   577  1
  608   407   408  1
  609   408   579  1
  610   408   410  1
  611   409   411  1
  612   409   410  1
  613   410   581  1
  614   411   412  1
  615   412   583  1
  616   412   414  1
  617   413   415  1
  618   413   414  1
  619   414   585  1
  620   415   416  1
  621   416   587  1
  622   416   418  1
  623   417   419  1
  624   417   418  1
  625   418   589  1
  626   419   420  1
  627   420   591  1
  628   420   422  1
  629   421   423  1
  630   421   422  1
  631   422   593  1
  632   423   424  1
  633   424   426  1
  634   424   595  1
  635   425   427  1
  636   425   426  1
  637   426   597  1
  638   427   428  1
  639   428   430  1
  640   428   599  1
  641   429   431  1
  642   429   430  1
  643   430   601  1
  644   431   432  1
  645   432   603  1
  646   432   434  1
  647   433   435  1
  648   433   434  1
  649   434   605  1
  650   435   436  1
  651   436   438  1
  652   436   607  1
  653   437   439  1
  654   437   438  1
  655   438   609  1
  656   439   440  1
  657   440   611  1
  658   440   442  1
  659   441   443  1
  660   441   442  1
  661   442   613  1
  662   443   444  1
  663   444   615  1
  664   444   446  1
  665   445   447  1
  666   445   446  1
  667   446   617  1
  668   447   448  1
  669   448   619  1
  670   448   450  1
  671   449   451  1
  672   449   450  1
  673   450   621  1
  674   451   452  1
  675   452   623  1
  676   452   454  1
  677   453   455  1
  678   453   454  1
  679   454   625  1
  680   455   456  1
  681   456   627  1
  682   456   458  1
  683   457   459  1
  684   457   458  1
  685   458   629  1
  686   459   460  1
  687   460   631  1
  688   460   462  1
  689   461   463  1
  690   461   462  1
  691   462   633  1
  692   463   464  1
  693   464   635  1
  694   464   466  1
  695   465   467  1
  696   465   466  1
  697   466   637  1
  698   467   468  1
  699   468   639  1
  700   468   470  1
  701   469   471  1
  702   469   470  1
  703   470   641  1
  704   471   472  1
  705   472   474  1
  706   472   643  1
  707   473   475  1
  708   473   474  1
  709   474   645  1
  710   475   476  1
  711   476   478  1
  712   476   647  1
  713   477   479  1
  714   477   478  1
  715   478   649  1
  716   479   480  1
  717   480   482  1
  718   480   651  1
  719   481   483  1
  720   481   482  1
  721   482   653  1
  722   483   484  1
  723   484   486  1
  724   484   655  1
  725   485   487  1
  726   485   486  1
  727   486   657  1
  728   487   488  1
  729   488   659  1
  730   488   490  1
  731   489   491  1
  732   489   490  1
  733   490   661  1
  734   491   492  1
  735   492   663  1
  736   492   494  1
  737   493   495  1
  738   493   494  1
  739   494   665  1
  740   495   496  1
  741   496   667  1
  742   496   498  1
  743   497   499  1
  744   497   498  1
  745   498   669  1
  746   499   500  1
  747   500   671  1
  748   500   502  1
  749   501   503  1
  750   501   502  1
  751   502   673  1
  752   503   504  1
  753   504   675  1
  754   504   506  1
  755   505   507  1
  756   505   506  1
  757   506   677  1
  758   507   508  1
  759   508   679  1
  760   508   510  1
  761   509   511  1
  762   509   510  1
  763   510   681  1
  764   511   512  1
  765   512   683  1
  766   512   514  1
  767   513   515  1
  768   513   514  1
  769   514   685  1
  770   515   516  1
  771   516   687  1
  772   517   519  1
  773   517   518  1
  774   518   689  1
  775   519   520  1
  776   520   691  1
  777   520   522  1
  778   521   523  1
  779   521   522  1
  780   522   693  1
  781   523   524  1
  782   524   695  1
  783   524   526  1
  784   525   527  1
  785   525   526  1
  786   526   697  1
  787   527   528  1
  788   528   699  1
  789   528   530  1
  790   529   531  1
  791   529   530  1
  792   530   701  1
  793   531   532  1
  794   532   703  1
  795   532   534  1
  796   533   535  1
  797   533   534  1
  798   534   705  1
  799   535   536  1
  800   536   707  1
  801   536   538  1
  802   537   539  1
  803   537   538  1
  804   538   709  1
  805   539   540  1
  806   540   711  1
  807   540   542  1
  808   541   543  1
  809   541   542  1
  810   542   713  1
  811   543   544  1
  812   544   715  1
  813   544   546  1
  814   545   547  1
  815   545   546  1
  816   546   717  1
  817   547   548  1
  818   548   719  1
  819   548   550  1
  820   549   551  1
  821   549   550  1
  822   550   721  1
  823   551   552  1
  824   552   554  1
  825   552   723  1
  826   553   555  1
  827   553   554  1
  828   554   725  1
  829   555   556  1
  830   556   727  1
  831   556   558  1
  832   557   559  1
  833   557   558  1
  834   558   729  1
  835   559   560  1
  836   560   562  1
  837   560   731  1
  838   561   563  1
  839   561   562  1
  840   562   733  1
  841   563   564  1
  842   564   566  1
  843   564   735  1
  844   565   567  1
  845   565   566  1
  846   566   737  1
  847   567   568  1
  848   568   739  1
  849   568   570  1
  850   569   571  1
  851   569   570  1
  852   570   741  1
  853   571   572  1
  854   572   743  1
  855   572   574  1
  856   573   575  1
  857   573   574  1
  858   574   745  1
  859   575   576  1
  860   576   747  1
  861   576   578  1
  862   577   579  1
  863   577   578  1
  864   578   749  1
  865   579   580  1
  866   580   751  1
  867   580   582  1
  868   581   583  1
  869   581   582  1
  870   582   753  1
  871   583   584  1
  872   584   755  1
  873   584   586  1
  874   585   587  1
  875   585   586  1
  876   586   757  1
  877   587   588  1
  878   588   759  1
  879   588   590  1
  880   589   591  1
  881   589   590  1
  882   590   761  1
  883   591   592  1
  884   592   763  1
  885   592   594  1
  886   593   595  1
  887   593   594  1
  888   594   765  1
  889   595   596  1
  890   596   598  1
  891   596   767  1
  892   597   599  1
  893   597   598  1
  894   598   769  1
  895   599   600  1
  896   600   602  1
  897   600   771  1
  898   601   603  1
  899   601   602  1
  900   602   773  1
  901   603   604  1
  902   604   606  1
  903   604   775  1
  904   605   607  1
  905   605   606  1
  906   606   777  1
  907   607   608  1
  908   608   610  1
  909   608   779  1
  910   609   611  1
  911   609   610  1
  912   610   781  1
  913   611   612  1
  914   612   783  1
  915   612   614  1
  916   613   615  1
  917   613   614  1
  918   614   785  1
  919   615   616  1
  920   616   787  1
  921   616   618  1
  922   617   619  1
  923   617   618  1
  924   618   789  1
  925   619   620  1
  926   620   791  1
  927   620   622  1
  928   621   623  1
  929   621   622  1
  930   622   793  1
  931   623   624  1
  932   624   795  1
  933   624   626  1
  934   625   627  1
  935   625   626  1
  936   626   797  1
  937   627   628  1
  938   628   799  1
  939   628   630  1
  940   629   631  1
  941   629   630  1
  942   630   801  1
  943   631   632  1
  944   632   803  1
  945   632   634  1
  946   633   635  1
  947   633   634  1
  948   634   805  1
  949   635   636  1
  950   636   807  1
  951   636   638  1
  952   637   639  1
  953   637   638  1
  954   638   809  1
  955   639   640  1
  956   640   811  1
  957   640   642  1
  958   641   643  1
  959   641   642  1
  960   642   813  1
  961   643   644  1
  962   644   646  1
  963   644   815  1
  964   645   647  1
  965   645   646  1
  966   646   817  1
  967   647   648  1
  968   648   819  1
  969   648   650  1
  970   649   651  1
  971   649   650  1
  972   650   821  1
  973   651   652  1
  974   652   654  1
  975   652   823  1
  976   653   655  1
  977   653   654  1
  978   654   825  1
  979   655   656  1
  980   656   658  1
  981   656   827  1
  982   657   659  1
  983   657   658  1
  984   658   829  1
  985   659   660  1
  986   660   831  1
  987   660   662  1
  988   661   663  1
  989   661   662  1
  990   662   833  1
  991   663   664  1
  992   664   835  1
  993   664   666  1
  994   665   667  1
  995   665   666  1
  996   666   837  1
  997   667   668  1
  998   668   839  1
  999   668   670  1
 1000   669   671  1
 1001   669   670  1
 1002   670   841  1
 1003   671   672  1
 1004   672   843  1
 1005   672   674  1
 1006   673   675  1
 1007   673   674  1
 1008   674   845  1
 1009   675   676  1
 1010   676   847  1
 1011   676   678  1
 1012   677   679  1
 1013   677   678  1
 1014   678   849  1
 1015   679   680  1
 1016   680   851  1
 1017   680   682  1
 1018   681   683  1
 1019   681   682  1
 1020   682   853  1
 1021   683   684  1
 1022   684   855  1
 1023   684   686  1
 1024   685   687  1
 1025   685   686  1
 1026   686   857  1
 1027   687   688  1
 1028   688   859  1
 1029   689   691  1
 1030   689   690  1
 1031   690   861  1
 1032   691   692  1
 1033   692   694  1
 1034   692   863  1
 1035   693   695  1
 1036   693   694  1
 1037   694   865  1
 1038   695   696  1
 1039   696   698  1
 1040   696   867  1
 1041   697   699  1
 1042   697   698  1
 1043   698   869  1
 1044   699   700  1
 1045   700   702  1
 1046   700   871  1
 1047   701   703  1
 1048   701   702  1
 1049   702   873  1
 1050   703   704  1
 1051   704   706  1
 1052   704   875  1
 1053   705   707  1
 1054   705   706  1
 1055   706   877  1
 1056   707   708  1
 1057   708   710  1
 1058   708   879  1
 1059   709   711  1
 1060   709   710  1
 1061   710   881  1
 1062   711   712  1
 1063   712   714  1
 1064   712   883  1
 1065   713   715  1
 1066   713   714  1
 1067   714   885  1
 1068   715   716  1
 1069   716   718  1
 1070   716   887  1
 1071   717   719  1
 1072   717   718  1
 1073   718   889  1
 1074   719   720  1
 1075   720   722  1
 1076   720   891  1
 1077   721   723  1
 1078   721   722  1
 1079   722   893  1
 1080   723   724  1
 1081   724   726  1
 1082   724   895  1
 1083   725   727  1
 1084   725   726  1
 1085   726   897  1
 1086   727   728  1
 1087   728   730  1
 1088   728   899  1
 1089   729   731  1
 1090   729   730  1
 1091   730   901  1
 1092   731   732  1
 1093   732   734  1
 1094   732   903  1
 1095   733   735  1
 1096   733   734  1
 1097   734   905  1
 1098   735   736  1
 1099   736   738  1
 1100   736   907  1
 1101   737   739  1
 1102   737   738  1
 1103   738   909  1
 1104   739   740  1
 1105   740   742  1
 1106   740   911  1
 1107   741   743  1
 1108   741   742  1
 1109   742   913  1
 1110   743   744  1
 1111   744   746  1
 1112   744   915  1
 1113   745   747  1
 1114   745   746  1
 1115   746   917  1
 1116   747   748  1
 1117   748   750  1
 1118   748   919  1
 1119   749   751  1
 1120   749   750  1
 1121   750   921  1
 1122   751   752  1
 1123   752   754  1
 1124   752   923  1
 1125   753   755  1
 1126   753   754  1
 1127   754   925  1
 1128   755   756  1
 1129   756   758  1
 1130   756   927  1
 1131   757   759  1
 1132   757   758  1
 1133   758   929  1
 1134   759   760  1
 1135   760   762  1
 1136   760   931  1
 1137   761   763  1
 1138   761   762  1
 1139   762   933  1
 1140   763   764  1
 1141   764   766  1
 1142   764   935  1
 1143   765   767  1
 1144   765   766  1
 1145   766   937  1
 1146   767   768  1
 1147   768   770  1
 1148   768   939  1
 1149   769   771  1
 1150   769   770  1
 1151   770   941  1
 1152   771   772  1
 1153   772   774  1
 1154   772   943  1
 1155   773   775  1
 1156   773   774  1
 1157   774   945  1
 1158   775   776  1
 1159   776   778  1
 1160   776   947  1
 1161   777   779  1
 1162   777   778  1
 1163   778   949  1
 1164   779   780  1
 1165   780   782  1
 1166   780   951  1
 1167   781   783  1
 1168   781   782  1
 1169   782   953  1
 1170   783   784  1
 1171   784   786  1
 1172   784   955  1
 1173   785   787  1
 1174   785   786  1
 1175   786   957  1
 1176   787   788  1
 1177   788   790  1
 1178   788   959  1
 1179   789   791  1
 1180   789   790  1
 1181   790   961  1
 1182   791   792  1
 1183   792   794  1
 1184   792   963  1
 1185   793   795  1
 1186   793   794  1
 1187   794   965  1
 1188   795   796  1
 1189   796   798  1
 1190   796   967  1
 1191   797   799  1
 1192   797   798  1
 1193   798   969  1
 1194   799   800  1
 1195   800   802  1
 1196   800   971  1
 1197   801   803  1
 1198   801   802  1
 1199   802   973  1
 1200   803   804  1
 1201   804   806  1
 1202   804   975  1
 1203   805   807  1
 1204   805   806  1
 1205   806   977  1
 1206   807   808  1
 1207   808   810  1
 1208   808   979  1
 1209   809   811  1
 1210   809   810  1
 1211   810   981  1
 1212   811   812  1
 1213   812   814  1
 1214   812   983  1
 1215   813   815  1
 1216   813   814  1
 1217   814   985  1
 1218   815   816  1
 1219   816   818  1
 1220   816   987  1
 1221   817   819  1
 1222   817   818  1
 1223   818   989  1
 1224   819   820  1
 1225   820   822  1
 1226   820   991  1
 1227   821   823  1
 1228   821   822  1
 1229   822   993  1
 1230   823   824  1
 1231   824   826  1
 1232   824   995  1
 1233   825   827  1
 1234   825   826  1
 1235   826   997  1
 1236   827   828  1
 1237   828   830  1
 1238   828   999  1
 1239   829   831  1
 1240   829   830  1
 1241   830  1001  1
 1242   831   832  1
 1243   832   834  1
 1244   832  1003  1
 1245   833   835  1
 1246   833   834  1
 1247   834  1005  1
 1248   835   836  1
 1249   836   838  1
 1250   836  1007  1
 1251   837   839  1
 1252   837   838  1
 1253   838  1009  1
 1254   839   840  1
 1255   840   842  1
 1256   840  1011  1
 1257   841   843  1
 1258   841   842  1
 1259   842  1013  1
 1260   843   844  1
 1261   844   846  1
 1262   844  1015  1
 1263   845   847  1
 1264   845   846  1
 1265   846  1017  1
 1266   847   848  1
 1267   848   850  1
 1268   848  1019  1
 1269   849   851  1
 1270   849   850  1
 1271   850  1021  1
 1272   851   852  1
 1273   852   854  1
 1274   852  1023  1
 1275   853   855  1
 1276   853   854  1
 1277   854  1025  1
 1278   855   856  1
 1279   856   858  1
 1280   856  1027  1
 1281   857   859  1
 1282   857   858  1
 1283   858  1029  1
 1284   859   860  1
 1285   860  1031  1
 1286   861   862  1
 1287   861   863  1
 1288   862  1033  1
 1289   863   864  1
 1290   864   866  1
 1291   864  1035  1
 1292   865   866  1
 1293   865   867  1
 1294   866  1037  1
 1295   867   868  1
 1296   868   870  1
 1297   868  1039  1
 1298   869   870  1
 1299   869   871  1
 1300   870  1041  1
 1301   871   872  1
 1302   872   874  1
 1303   872  1043  1
 1304   873   874  1
 1305   873   875  1
 1306   874  1045  1
 1307   875   876  1
 1308   876   878  1
 1309   876  1047  1
 1310   877   878  1
 1311   877   879  1
 1312   878  1049  1
 1313   879   880  1
 1314   880   882  1
 1315   880  1051  1
 1316   881   882  1
 1317   881   883  1
 1318   882  1053  1
 1319   883   884  1
 1320   884   886  1
 1321   884  1055  1
 1322   885   886  1
 1323   885   887  1
 1324   886  1057  1
 1325   887   888  1
 1326   888   890  1
 1327   888  1059  1
 1328   889   890  1
 1329   889   891  1
 1330   890  1061  1
 1331   891   892  1
 1332   892   894  1
 1333   892  1063  1
 1334   893   895  1
 1335   893   894  1
 1336   894  1065  1
 1337   895   896  1
 1338   896   898  1
 1339   896  1067  1
 1340   897   899  1
 1341   897   898  1
 1342   898  1069  1
 1343   899   900  1
 1344   900   902  1
 1345   900  1071  1
 1346   901   903  1
 1347   901   902  1
 1348   902  1073  1
 1349   903   904  1
 1350   904   906  1
 1351   904  1075  1
 1352   905   907  1
 1353   905   906  1
 1354   906  1077  1
 1355   907   908  1
 1356   908   910  1
 1357   908  1079  1
 1358   909   910  1
 1359   909   911  1
 1360   910  1081  1
 1361   911   912  1
 1362   912   914  1
 1363   912  1083  1
 1364   913   914  1
 1365   913   915  1
 1366   914  1085  1
 1367   915   916  1
 1368   916   918  1
 1369   916  1087  1
 1370   917   918  1
 1371   917   919  1
 1372   918  1089  1
 1373   919   920  1
 1374   920   922  1
 1375   920  1091  1
 1376   921   922  1
 1377   921   923  1
 1378   922  1093  1
 1379   923   924  1
 1380   924   926  1
 1381   924  1095  1
 1382   925   926  1
 1383   925   927  1
 1384   926  1097  1
 1385   927   928  1
 1386   928   930  1
 1387   928  1099  1
 1388   929   930  1
 1389   929   931  1
 1390   930  1101  1
 1391   931   932  1
 1392   932   934  1
 1393   932  1103  1
 1394   933   934  1
 1395   933   935  1
 1396   934  1105  1
 1397   935   936  1
 1398   936   938  1
 1399   936  1107  1
 1400   937   938  1
 1401   937   939  1
 1402   938  1109  1
 1403   939   940  1
 1404   940   942  1
 1405   940  1111  1
 1406   941   942  1
 1407   941   943  1
 1408   942  1113  1
 1409   943   944  1
 1410   944   946  1
 1411   944  1115  1
 1412   945   947  1
 1413   945   946  1
 1414   946  1117  1
 1415   947   948  1
 1416   948   950  1
 1417   948  1119  1
 1418   949   951  1
 1419   949   950  1
 1420   950  1121  1
 1421   951   952  1
 1422   952   954  1
 1423   952  1123  1
 1424   953   955  1
 1425   953   954  1
 1426   954  1125  1
 1427   955   956  1
 1428   956   958  1
 1429   956  1127  1
 1430   957   958  1
 1431   957   959  1
 1432   958  1129  1
 1433   959   960  1
 1434   960   962  1
 1435   960  1131  1
 1436   961   962  1
 1437   961   963  1
 1438   962  1133  1
 1439   963   964  1
 1440   964   966  1
 1441   964  1135  1
 1442   965   966  1
 1443   965   967  1
 1444   966  1137  1
 1445   967   968  1
 1446   968   970  1
 1447   968  1139  1
 1448   969   970  1
 1449   969   971  1
 1450   970  1141  1
 1451   971   972  1
 1452   972   974  1
 1453   972  1143  1
 1454   973   974  1
 1455   973   975  1
 1456   974  1145  1
 1457   975   976  1
 1458   976   978  1
 1459   976  1147  1
 1460   977   978  1
 1461   977   979  1
 1462   978  1149  1
 1463   979   980  1
 1464   980   982  1
 1465   980  1151  1
 1466   981   982  1
 1467   981   983  1
 1468   982  1153  1
 1469   983   984  1
 1470   984   986  1
 1471   984  1155  1
 1472   985   986  1
 1473   985   987  1
 1474   986  1157  1
 1475   987   988  1
 1476   988   990  1
 1477   988  1159  1
 1478   989   991  1
 1479   989   990  1
 1480   990  1161  1
 1481   991   992  1
 1482   992   994  1
 1483   992  1163  1
 1484   993   995  1
 1485   993   994  1
 1486   994  1165  1
 1487   995   996  1
 1488   996   998  1
 1489   996  1167  1
 1490   997   999  1
 1491   997   998  1
 1492   998  1169  1
 1493   999  1000  1
 1494  1000  1002  1
 1495  1000  1171  1
 1496  1001  1003  1
 1497  1001  1002  1
 1498  1002  1173  1
 1499  1003  1004  1
 1500  1004  1006  1
 1501  1004  1175  1
 1502  1005  1006  1
 1503  1005  1007  1
 1504  1006  1177  1
 1505  1007  1008  1
 1506  1008  1010  1
 1507  1008  1179  1
 1508  1009  1010  1
 1509  1009  1011  1
 1510  1010  1181  1
 1511  1011  1012  1
 1512  1012  1014  1
 1513  1012  1183  1
 1514  1013  1014  1
 1515  1013  1015  1
 1516  1014  1185  1
 1517  1015  1016  1
 1518  1016  1018  1
 1519  1016  1187  1
 1520  1017  1018  1
 1521  1017  1019  1
 1522  1018  1189  1
 1523  1019  1020  1
 1524  1020  1022  1
 1525  1020  1191  1
 1526  1021  1022  1
 1527  1021  1023  1
 1528  1022  1193  1
 1529  1023  1024  1
 1530  1024  1026  1
 1531  1024  1195  1
 1532  1025  1026  1
 1533  1025  1027  1
 1534  1026  1197  1
 1535  1027  1028  1
 1536  1028  1030  1
 1537  1028  1199  1
 1538  1029  1030  1
 1539  1029  1031  1
 1540  1030  1201  1
 1541  1031  1032  1
 1542  1032  1203  1
 1543  1033  1034  1
 1544  1033  1035  1
 1545  1034  1205  1
 1546  1035  1036  1
 1547  1036  1038  1
 1548  1036  1207  1
 1549  1037  1038  1
 1550  1037  1039  1
 1551  1038  1209  1
 1552  1039  1040  1
 1553  1040  1042  1
 1554  1040  1211  1
 1555  1041  1042  1
 1556  1041  1043  1
 1557  1042  1213  1
 1558  1043  1044  1
 1559  1044  1046  1
 1560  1044  1215  1
 1561  1045  1046  1
 1562  1045  1047  1
 1563  1046  1217  1
 1564  1047  1048  1
 1565  1048  1050  1
 1566  1048  1219  1
 1567  1049  1050  1
 1568  1049  1051  1
 1569  1050  1221  1
 1570  1051  1052  1
 1571  1052  1054  1
 1572  1052  1223  1
 1573  1053  1054  1
 1574  1053  1055  1
 1575  1054  1225  1
 1576  1055  1056  1
 1577  1056  1058  1
 1578  1056  1227  1
 1579  1057  1058  1
 1580  1057  1059  1
 1581  1058  1229  1
 1582  1059  1060  1
 1583  1060  1062  1
 1584  1060  1231  1
 1585  1061  1062  1
 1586  1061  1063  1
 1587  1062  1233  1
 1588  1063  1064  1
 1589  1064  1066  1
 1590  1064  1235  1
 1591  1065  1066  1
 1592  1065  1067  1
 1593  1066  1237  1
 1594  1067  1068  1
 1595  1068  1070  1
 1596  1068  1239  1
 1597  1069  1071  1
 1598  1069  1070  1
 1599  1070  1241  1
 1600  1071  1072  1
 1601  1072  1074  1
 1602  1072  1243  1
 1603  1073  1075  1
 1604  1073  1074  1
 1605  1074  1245  1
 1606  1075  1076  1
 1607  1076  1078  1
 1608  1076  1247  1
 1609  1077  1079  1
 1610  1077  1078  1
 1611  1078  1249  1
 1612  1079  1080  1
 1613  1080  1082  1
 1614  1080  1251  1
 1615  1081  1082  1
 1616  1081  1083  1
 1617  1082  1253  1
 1618  1083  1084  1
 1619  1084  1086  1
 1620  1084  1255  1
 1621  1085  1086  1
 1622  1085  1087  1
 1623  1086  1257  1
 1624  1087  1088  1
 1625  1088  1090  1
 1626  1088  1259  1
 1627  1089  1090  1
 1628  1089  1091  1
 1629  1090  1261  1
 1630  1091  1092  1
 1631  1092  1094  1
 1632  1092  1263  1
 1633  1093  1094  1
 1634  1093  1095  1
 1635  1094  1265  1
 1636  1095  1096  1
 1637  1096  1098  1
 1638  1096  1267  1
 1639  1097  1098  1
 1640  1097  1099  1
 1641  1098  1269  1
 1642  1099  1100  1
 1643  1100  1102  1
 1644  1100  1271  1
 1645  1101  1102  1
 1646  1101  1103  1
 1647  1102  1273  1
 1648  1103  1104  1
 1649  1104  1106  1
 1650  1104  1275  1
 1651  1105  1106  1
 1652  1105  1107  1
 1653  1106  1277  1
 1654  1107  1108  1
 1655  1108  1110  1
 1656  1108  1279  1
 1657  1109  1110  1
 1658  1109  1111  1
 1659  1110  1281  1
 1660  1111  1112  1
 1661  1112  1114  1
 1662  1112  1283  1
 1663  1113  1115  1
 1664  1113  1114  1
 1665  1114  1285  1
 1666  1115  1116  1
 1667  1116  1118  1
 1668  1116  1287  1
 1669  1117  1119  1
 1670  1117  1118  1
 1671  1118  1289  1
 1672  1119  1120  1
 1673  1120  1122  1
 1674  1120  1291  1
 1675  1121  1123  1
 1676  1121  1122  1
 1677  1122  1293  1
 1678  1123  1124  1
 1679  1124  1126  1
 1680  1124  1295  1
 1681  1125  1127  1
 1682  1125  1126  1
 1683  1126  1297  1
 1684  1127  1128  1
 1685  1128  1130  1
 1686  1128  1299  1
 1687  1129  1130  1
 1688  1129  1131  1
 1689  1130  1301  1
 1690  1131  1132  1
 1691  1132  1134  1
 1692  1132  1303  1
 1693  1133  1134  1
 1694  1133  1135  1
 1695  1134  1305  1
 1696  1135  1136  1
 1697  1136  1138  1
 1698  1136  1307  1
 1699  1137  1138  1
 1700  1137  1139  1
 1701  1138  1309  1
 1702  1139  1140  1
 1703  1140  1142  1
 1704  1140  1311  1
 1705  1141  1142  1
 1706  1141  1143  1
 1707  1142  1313  1
 1708  1143  1144  1
 1709  1144  1146  1
 1710  1144  1315  1
 1711  1145  1146  1
 1712  1145  1147  1
 1713  1146  1317  1
 1714  1147  1148  1
 1715  1148  1150  1
 1716  1148  1319  1
 1717  1149  1150  1
 1718  1149  1151  1
 1719  1150  1321  1
 1720  1151  1152  1
 1721  1152  1154  1
 1722  1152  1323  1
 1723  1153  1154  1
 1724  1153  1155  1
 1725  1154  1325  1
 1726  1155  1156  1
 1727  1156  1158  1
 1728  1156  1327  1
 1729  1157  1158  1
 1730  1157  1159  1
 1731  1158  1329  1
 1732  1159  1160  1
 1733  1160  1162  1
 1734  1160  1331  1
 1735  1161  1163  1
 1736  1161  1162  1
 1737  1162  1333  1
 1738  1163  1164  1
 1739  1164  1166  1
 1740  1164  1335  1
 1741  1165  1167  1
 1742  1165  1166  1
 1743  1166  1337  1
 1744  1167  1168  1
 1745  1168  1170  1
 1746  1168  1339  1
 1747  1169  1171  1
 1748  1169  1170  1
 1749  1170  1341  1
 1750  1171  1172  1
 1751  1172  1174  1
 1752  1172  1343  1
 1753  1173  1174  1
 1754  1173  1175  1
 1755  1174  1345  1
 1756  1175  1176  1
 1757  1176  1178  1
 1758  1176  1347  1
 1759  1177  1178  1
 1760  1177  1179  1
 1761  1178  1349  1
 1762  1179  1180  1
 1763  1180  1182  1
 1764  1180  1351  1
 1765  1181  1182  1
 1766  1181  1183  1
 1767  1182  1353  1
 1768  1183  1184  1
 1769  1184  1186  1
 1770  1184  1355  1
 1771  1185  1186  1
 1772  1185  1187  1
 1773  1186  1357  1
 1774  1187  1188  1
 1775  1188  1190  1
 1776  1188  1359  1
 1777  1189  1190  1
 1778  1189  1191  1
 1779  1190  1361  1
 1780  1191  1192  1
 1781  1192  1194  1
 1782  1192  1363  1
 1783  1193  1194  1
 1784  1193  1195  1
 1785  1194  1365  1
 1786  1195  1196  1
 1787  1196  1198  1
 1788  1196  1367  1
 1789  1197  1198  1
 1790  1197  1199  1
 1791  1198  1369  1
 1792  1199  1200  1
 1793  1200  1202  1
 1794  1200  1371  1
 1795  1201  1202  1
 1796  1201  1203  1
 1797  1202  1373  1
 1798  1203  1204  1
 1799  1204  1375  1
 1800  1205  1207  1
 1801  1205  1206  1
 1802  1206  1377  1
 1803  1207  1208  1
 1804  1208  1379  1
 1805  1208  1210  1
 1806  1209  1211  1
 1807  1209  1210  1
 1808  1210  1381  1
 1809  1211  1212  1
 1810  1212  1383  1
 1811  1212  1214  1
 1812  1213  1215  1
 1813  1213  1214  1
 1814  1214  1385  1
 1815  1215  1216  1
 1816  1216  1387  1
 1817  1216  1218  1
 1818  1217  1219  1
 1819  1217  1218  1
 1820  1218  1389  1
 1821  1219  1220  1
 1822  1220  1391  1
 1823  1220  1222  1
 1824  1221  1223  1
 1825  1221  1222  1
 1826  1222  1393  1
 1827  1223  1224  1
 1828  1224  1395  1
 1829  1224  1226  1
 1830  1225  1227  1
 1831  1225  1226  1
 1832  1226  1397  1
 1833  1227  1228  1
 1834  1228  1399  1
 1835  1228  1230  1
 1836  1229  1231  1
 1837  1229  1230  1
 1838  1230  1401  1
 1839  1231  1232  1
 1840  1232  1403  1
 1841  1232  1234  1
 1842  1233  1235  1
 1843  1233  1234  1
 1844  1234  1405  1
 1845  1235  1236  1
 1846  1236  1407  1
 1847  1236  1238  1
 1848  1237  1239  1
 1849  1237  1238  1
 1850  1238  1409  1
 1851  1239  1240  1
 1852  1240  1242  1
 1853  1240  1411  1
 1854  1241  1243  1
 1855  1241  1242  1
 1856  1242  1413  1
 1857  1243  1244  1
 1858  1244  1246  1
 1859  1244  1415  1
 1860  1245  1247  1
 1861  1245  1246  1
 1862  1246  1417  1
 1863  1247  1248  1
 1864  1248  1250  1
 1865  1248  1419  1
 1866  1249  1251  1
 1867  1249  1250  1
 1868  1250  1421  1
 1869  1251  1252  1
 1870  1252  1254  1
 1871  1252  1423  1
 1872  1253  1255  1
 1873  1253  1254  1
 1874  1254  1425  1
 1875  1255  1256  1
 1876  1256  1427  1
 1877  1256  1258  1
 1878  1257  1259  1
 1879  1257  1258  1
 1880  1258  1429  1
 1881  1259  1260  1
 1882  1260  1431  1
 1883  1260  1262  1
 1884  1261  1263  1
 1885  1261  1262  1
 1886  1262  1433  1
 1887  1263  1264  1
 1888  1264  1435  1
 1889  1264  1266  1
 1890  1265  1267  1
 1891  1265  1266  1
 1892  1266  1437  1
 1893  1267  1268  1
 1894  1268  1439  1
 1895  1268  1270  1
 1896  1269  1271  1
 1897  1269  1270  1
 1898  1270  1441  1
 1899  1271  1272  1
 1900  1272  1443  1
 1901  1272  1274  1
 1902  1273  1275  1
 1903  1273  1274  1
 1904  1274  1445  1
 1905  1275  1276  1
 1906  1276  1447  1
 1907  1276  1278  1
 1908  1277  1279  1
 1909  1277  1278  1
 1910  1278  1449  1
 1911  1279  1280  1
 1912  1280  1451  1
 1913  1280  1282  1
 1914  1281  1283  1
 1915  1281  1282  1
 1916  1282  1453  1
 1917  1283  1284  1
 1918  1284  1286  1
 1919  1284  1455  1
 1920  1285  1287  1
 1921  1285  1286  1
 1922  1286  1457  1
 1923  1287  1288  1
 1924  1288  1290  1
 1925  1288  1459  1
 1926  1289  1291  1
 1927  1289  1290  1
 1928  1290  1461  1
 1929  1291  1292  1
 1930  1292  1294  1
 1931  1292  1463  1
 1932  1293  1295  1
 1933  1293  1294  1
 1934  1294  1465  1
 1935  1295  1296  1
 1936  1296  1467  1
 1937  1296  1298  1
 1938  1297  1299  1
 1939  1297  1298  1
 1940  1298  1469  1
 1941  1299  1300  1
 1942  1300  1471  1
 1943  1300  1302  1
 1944  1301  1303  1
 1945  1301  1302  1
 1946  1302  1473  1
 1947  1303  1304  1
 1948  1304  1475  1
 1949  1304  1306  1
 1950  1305  1307  1
 1951  1305  1306  1
 1952  1306  1477  1
 1953  1307  1308  1
 1954  1308  1479  1
 1955  1308  1310  1
 1956  1309  1311  1
 1957  1309  1310  1
 1958  1310  1481  1
 1959  1311  1312  1
 1960  1312  1483  1
 1961  1312  1314  1
 1962  1313  1315  1
 1963  1313  1314  1
 1964  1314  1485  1
 1965  1315  1316  1
 1966  1316  1487  1
 1967  1316  1318  1
 1968  1317  1319  1
 1969  1317  1318  1
 1970  1318  1489  1
 1971  1319  1320  1
 1972  1320  1491  1
 1973  1320  1322  1
 1974  1321  1323  1
 1975  1321  1322  1
 1976  1322  1493  1
 1977  1323  1324  1
 1978  1324  1495  1
 1979  1324  1326  1
 1980  1325  1327  1
 1981  1325  1326  1
 1982  1326  1497  1
 1983  1327  1328  1
 1984  1328  1499  1
 1985  1328  1330  1
 1986  1329  1331  1
 1987  1329  1330  1
 1988  1330  1501  1
 1989  1331  1332  1
 1990  1332  1334  1
 1991  1332  1503  1
 1992  1333  1335  1
 1993  1333  1334  1
 1994  1334  1505  1
 1995  1335  1336  1
 1996  1336  1338  1
 1997  1336  1507  1
 1998  1337  1339  1
 1999  1337  1338  1
 2000  1338  1509  1
 2001  1339  1340  1
 2002  1340  1342  1
 2003  1340  1511  1
 2004  1341  1343  1
 2005  1341  1342  1
 2006  1342  1513  1
 2007  1343  1344  1
 2008  1344  1346  1
 2009  1344  1515  1
 2010  1345  1347  1
 2011  1345  1346  1
 2012  1346  1517  1
 2013  1347  1348  1
 2014  1348  1519  1
 2015  1348  1350  1
 2016  1349  1351  1
 2017  1349  1350  1
 2018  1350  1521  1
 2019  1351  1352  1
 2020  1352  1523  1
 2021  1352  1354  1
 2022  1353  1355  1
 2023  1353  1354  1
 2024  1354  1525  1
 2025  1355  1356  1
 2026  1356  1527  1
 2027  1356  1358  1
 2028  1357  1359  1
 2029  1357  1358  1
 2030  1358  1529  1
 2031  1359  1360  1
 2032  1360  1531  1
 2033  1360  1362  1
 2034  1361  1363  1
 2035  1361  1362  1
 2036  1362  1533  1
 2037  1363  1364  1
 2038  1364  1535  1
 2039  1364  1366  1
 2040  1365  1367  1
 2041  1365  1366  1
 2042  1366  1537  1
 2043  1367  1368  1
 2044  1368  1539  1
 2045  1368  1370  1
 2046  1369  1371  1
 2047  1369  1370  1
 2048  1370  1541  1
 2049  1371  1372  1
 2050  1372  1543  1
 2051  1372  1374  1
 2052  1373  1375  1
 2053  1373  1374  1
 2054  1374  1545  1
 2055  1375  1376  1
 2056  1376  1547  1
 2057  1377  1379  1
 2058  1377  1378  1
 2059  1378  1549  1
 2060  1379  1380  1
 2061  1380  1551  1
 2062  1380  1382  1
 2063  1381  1383  1
 2064  1381  1382  1
 2065  1382  1553  1
 2066  1383  1384  1
 2067  1384  1555  1
 2068  1384  1386  1
 2069  1385  1387  1
 2070  1385  1386  1
 2071  1386  1557  1
 2072  1387  1388  1
 2073  1388  1559  1
 2074  1388  1390  1
 2075  1389  1391  1
 2076  1389  1390  1
 2077  1390  1561  1
 2078  1391  1392  1
 2079  1392  1563  1
 2080  1392  1394  1
 2081  1393  1395  1
 2082  1393  1394  1
 2083  1394  1565  1
 2084  1395  1396  1
 2085  1396  1567  1
 2086  1396  1398  1
 2087  1397  1399  1
 2088  1397  1398  1
 2089  1398  1569  1
 2090  1399  1400  1
 2091  1400  1571  1
 2092  1400  1402  1
 2093  1401  1403  1
 2094  1401  1402  1
 2095  1402  1573  1
 2096  1403  1404  1
 2097  1404  1575  1
 2098  1404  1406  1
 2099  1405  1407  1
 2100  1405  1406  1
 2101  1406  1577  1
 2102  1407  1408  1
 2103  1408  1579  1
 2104  1408  1410  1
 2105  1409  1411  1
 2106  1409  1410  1
 2107  1410  1581  1
 2108  1411  1412  1
 2109  1412  1414  1
 2110  1412  1583  1
 2111  1413  1415  1
 2112  1413  1414  1
 2113  1414  1585  1
 2114  1415  1416  1
 2115  1416  1418  1
 2116  1416  1587  1
 2117  1417  1419  1
 2118  1417  1418  1
 2119  1418  1589  1
 2120  1419  1420  1
 2121  1420  1591  1
 2122  1420  1422  1
 2123  1421  1423  1
 2124  1421  1422  1
 2125  1422  1593  1
 2126  1423  1424  1
 2127  1424  1426  1
 2128  1424  1595  1
 2129  1425  1427  1
 2130  1425  1426  1
 2131  1426  1597  1
 2132  1427  1428  1
 2133  1428  1599  1
 2134  1428  1430  1
 2135  1429  1431  1
 2136  1429  1430  1
 2137  1430  1601  1
 2138  1431  1432  1
 2139  1432  1603  1
 2140  1432  1434  1
 2141  1433  1435  1
 2142  1433  1434  1
 2143  1434  1605  1
 2144  1435  1436  1
 2145  1436  1607  1
 2146  1436  1438  1
 2147  1437  1439  1
 2148  1437  1438  1
 2149  1438  1609  1
 2150  1439  1440  1
 2151  1440  1611  1
 2152  1440  1442  1
 2153  1441  1443  1
 2154  1441  1442  1
 2155  1442  1613  1
 2156  1443  1444  1
 2157  1444  1615  1
 2158  1444  1446  1
 2159  1445  1447  1
 2160  1445  1446  1
 2161  1446  1617  1
 2162  1447  1448  1
 2163  1448  1619  1
 2164  1448  1450  1
 2165  1449  1451  1
 2166  1449  1450  1
 2167  1450  1621  1
 2168  1451  1452  1
 2169  1452  1623  1
 2170  1452  1454  1
 2171  1453  1455  1
 2172  1453  1454  1
 2173  1454  1625  1
 2174  1455  1456  1
 2175  1456  1458  1
 2176  1456  1627  1
 2177  1457  1459  1
 2178  1457  1458  1
 2179  1458  1629  1
 2180  1459  1460  1
 2181  1460  1462  1
 2182  1460  1631  1
 2183  1461  1463  1
 2184  1461  1462  1
 2185  1462  1633  1
 2186  1463  1464  1
 2187  1464  1466  1
 2188  1464  1635  1
 2189  1465  1467  1
 2190  1465  1466  1
 2191  1466  1637  1
 2192  1467  1468  1
 2193  1468  1470  1
 2194  1468  1639  1
 2195  1469  1471  1
 2196  1469  1470  1
 2197  1470  1641  1
 2198  1471  1472  1
 2199  1472  1643  1
 2200  1472  1474  1
 2201  1473  1475  1
 2202  1473  1474  1
 2203  1474  1645  1
 2204  1475  1476  1
 2205  1476  1647  1
 2206  1476  1478  1
 2207  1477  1479  1
 2208  1477  1478  1
 2209  1478  1649  1
 2210  1479  1480  1
 2211  1480  1651  1
 2212  1480  1482  1
 2213  1481  1483  1
 2214  1481  1482  1
 2215  1482  1653  1
 2216  1483  1484  1
 2217  1484  1655  1
 2218  1484  1486  1
 2219  1485  1487  1
 2220  1485  1486  1
 2221  1486  1657  1
 2222  1487  1488  1
 2223  1488  1659  1
 2224  1488  1490  1
 2225  1489  1491  1
 2226  1489  1490  1
 2227  1490  1661  1
 2228  1491  1492  1
 2229  1492  1663  1
 2230  1492  1494  1
 2231  1493  1495  1
 2232  1493  1494  1
 2233  1494  1665  1
 2234  1495  1496  1
 2235  1496  1667  1
 2236  1496  1498  1
 2237  1497  1499  1
 2238  1497  1498  1
 2239  1498  1669  1
 2240  1499  1500  1
 2241  1500  1671  1
 2242  1500  1502  1
 2243  1501  1503  1
 2244  1501  1502  1
 2245  1502  1673  1
 2246  1503  1504  1
 2247  1504  1506  1
 2248  1504  1675  1
 2249  1505  1507  1
 2250  1505  1506  1
 2251  1506  1677  1
 2252  1507  1508  1
 2253  1508  1510  1
 2254  1508  1679  1
 2255  1509  1511  1
 2256  1509  1510  1
 2257  1510  1681  1
 2258  1511  1512  1
 2259  1512  1683  1
 2260  1512  1514  1
 2261  1513  1515  1
 2262  1513  1514  1
 2263  1514  1685  1
 2264  1515  1516  1
 2265  1516  1518  1
 2266  1516  1687  1
 2267  1517  1519  1
 2268  1517  1518  1
 2269  1518  1689  1
 2270  1519  1520  1
 2271  1520  1691  1
 2272  1520  1522  1
 2273  1521  1523  1
 2274  1521  1522  1
 2275  1522  1693  1
 2276  1523  1524  1
 2277  1524  1695  1
 2278  1524  1526  1
 2279  1525  1527  1
 2280  1525  1526  1
 2281  1526  1697  1
 2282  1527  1528  1
 2283  1528  1699  1
 2284  1528  1530  1
 2285  1529  1531  1
 2286  1529  1530  1
 2287  1530  1701  1
 2288  1531  1532  1
 2289  1532  1703  1
 2290  1532  1534  1
 2291  1533  1535  1
 2292  1533  1534  1
 2293  1534  1705  1
 2294  1535  1536  1
 2295  1536  1707  1
 2296  1536  1538  1
 2297  1537  1539  1
 2298  1537  1538  1
 2299  1538  1709  1
 2300  1539  1540  1
 2301  1540  1711  1
 2302  1540  1542  1
 2303  1541  1543  1
 2304  1541  1542  1
 2305  1542  1713  1
 2306  1543  1544  1
 2307  1544  1715  1
 2308  1544  1546  1
 2309  1545  1547  1
 2310  1545  1546  1
 2311  1546  1717  1
 2312  1547  1548  1
 2313  1548  1719  1
 2314  1549  1551  1
 2315  1549  1550  1
 2316  1550  1721  1
 2317  1551  1552  1
 2318  1552  1554  1
 2319  1552  1723  1
 2320  1553  1555  1
 2321  1553  1554  1
 2322  1554  1725  1
 2323  1555  1556  1
 2324  1556  1558  1
 2325  1556  1727  1
 2326  1557  1559  1
 2327  1557  1558  1
 2328  1558  1729  1
 2329  1559  1560  1
 2330  1560  1562  1
 2331  1560  1731  1
 2332  1561  1563  1
 2333  1561  1562  1
 2334  1562  1733  1
 2335  1563  1564  1
 2336  1564  1566  1
 2337  1564  1735  1
 2338  1565  1567  1
 2339  1565  1566  1
 2340  1566  1737  1
 2341  1567  1568  1
 2342  1568  1570  1
 2343  1568  1739  1
 2344  1569  1571  1
 2345  1569  1570  1
 2346  1570  1741  1
 2347  1571  1572  1
 2348  1572  1574  1
 2349  1572  1743  1
 2350  1573  1575  1
 2351  1573  1574  1
 2352  1574  1745  1
 2353  1575  1576  1
 2354  1576  1578  1
 2355  1576  1747  1
 2356  1577  1579  1
 2357  1577  1578  1
 2358  1578  1749  1
 2359  1579  1580  1
 2360  1580  1582  1
 2361  1580  1751  1
 2362  1581  1583  1
 2363  1581  1582  1
 2364  1582  1753  1
 2365  1583  1584  1
 2366  1584  1586  1
 2367  1584  1755  1
 2368  1585  1587  1
 2369  1585  1586  1
 2370  1586  1757  1
 2371  1587  1588  1
 2372  1588  1590  1
 2373  1588  1759  1
 2374  1589  1591  1
 2375  1589  1590  1
 2376  1590  1761  1
 2377  1591  1592  1
 2378  1592  1594  1
 2379  1592  1763  1
 2380  1593  1595  1
 2381  1593  1594  1
 2382  1594  1765  1
 2383  1595  1596  1
 2384  1596  1598  1
 2385  1596  1767  1
 2386  1597  1599  1
 2387  1597  1598  1
 2388  1598  1769  1
 2389  1599  1600  1
 2390  1600  1602  1
 2391  1600  1771  1
 2392  1601  1603  1
 2393  1601  1602  1
 2394  1602  1773  1
 2395  1603  1604  1
 2396  1604  1606  1
 2397  1604  1775  1
 2398  1605  1607  1
 2399  1605  1606  1
 2400  1606  1777  1
 2401  1607  1608  1
 2402  1608  1610  1
 2403  1608  1779  1
 2404  1609  1611  1
 2405  1609  1610  1
 2406  1610  1781  1
 2407  1611  1612  1
 2408  1612  1614  1
 2409  1612  1783  1
 2410  1613  1615  1
 2411  1613  1614  1
 2412  1614  1785  1
 2413  1615  1616  1
 2414  1616  1618  1
 2415  1616  1787  1
 2416  1617  1619  1
 2417  1617  1618  1
 2418  1618  1789  1
 2419  1619  1620  1
 2420  1620  1622  1
 2421  1620  1791  1
 2422  1621  1623  1
 2423  1621  1622  1
 2424  1622  1793  1
 2425  1623  1624  1
 2426  1624  1626  1
 2427  1624  1795  1
 2428  1625  1627  1
 2429  1625  1626  1
 2430  1626  1797  1
 2431  1627  1628  1
 2432  1628  1630  1
 2433  1628  1799  1
 2434  1629  1631  1
 2435  1629  1630  1
 2436  1630  1801  1
 2437  1631  1632  1
 2438  1632  1634  1
 2439  1632  1803  1
 2440  1633  1635  1
 2441  1633  1634  1
 2442  1634  1805  1
 2443  1635  1636  1
 2444  1636  1638  1
 2445  1636  1807  1
 2446  1637  1639  1
 2447  1637  1638  1
 2448  1638  1809  1
 2449  1639  1640  1
 2450  1640  1642  1
 2451  1640  1811  1
 2452  1641  1643  1
 2453  1641  1642  1
 2454  1642  1813  1
 2455  1643  1644  1
 2456  1644  1646  1
 2457  1644  1815  1
 2458  1645  1647  1
 2459  1645  1646  1
 2460  1646  1817  1
 2461  1647  1648  1
 2462  1648  1650  1
 2463  1648  1819  1
 2464  1649  1651  1
 2465  1649  1650  1
 2466  1650  1821  1
 2467  1651  1652  1
 2468  1652  1654  1
 2469  1652  1823  1
 2470  1653  1655  1
 2471  1653  1654  1
 2472  1654  1825  1
 2473  1655  1656  1
 2474  1656  1658  1
 2475  1656  1827  1
 2476  1657  1659  1
 2477  1657  1658  1
 2478  1658  1829  1
 2479  1659  1660  1
 2480  1660  1662  1
 2481  1660  1831  1
 2482  1661  1663  1
 2483  1661  1662  1
 2484  1662  1833  1
 2485  1663  1664  1
 2486  1664  1666  1
 2487  1664  1835  1
 2488  1665  1667  1
 2489  1665  1666  1
 2490  1666  1837  1
 2491  1667  1668  1
 2492  1668  1670  1
 2493  1668  1839  1
 2494  1669  1671  1
 2495  1669  1670  1
 2496  1670  1841  1
 2497  1671  1672  1
 2498  1672  1674  1
 2499  1672  1843  1
 2500  1673  1675  1
 2501  1673  1674  1
 2502  1674  1845  1
 2503  1675  1676  1
 2504  1676  1678  1
 2505  1676  1847  1
 2506  1677  1679  1
 2507  1677  1678  1
 2508  1678  1849  1
 2509  1679  1680  1
 2510  1680  1682  1
 2511  1680  1851  1
 2512  1681  1683  1
 2513  1681  1682  1
 2514  1682  1853  1
 2515  1683  1684  1
 2516  1684  1686  1
 2517  1684  1855  1
 2518  1685  1687  1
 2519  1685  1686  1
 2520  1686  1857  1
 2521  1687  1688  1
 2522  1688  1690  1
 2523  1688  1859  1
 2524  1689  1691  1
 2525  1689  1690  1
 2526  1690  1861  1
 2527  1691  1692  1
 2528  1692  1694  1
 2529  1692  1863  1
 2530  1693  1695  1
 2531  1693  1694  1
 2532  1694  1865  1
 2533  1695  1696  1
 2534  1696  1698  1
 2535  1696  1867  1
 2536  1697  1699  1
 2537  1697  1698  1
 2538  1698  1869  1
 2539  1699  1700  1
 2540  1700  1702  1
 2541  1700  1871  1
 2542  1701  1703  1
 2543  1701  1702  1
 2544  1702  1873  1
 2545  1703  1704  1
 2546  1704  1706  1
 2547  1704  1875  1
 2548  1705  1707  1
 2549  1705  1706  1
 2550  1706  1877  1
 2551  1707  1708  1
 2552  1708  1710  1
 2553  1708  1879  1
 2554  1709  1711  1
 2555  1709  1710  1
 2556  1710  1881  1
 2557  1711  1712  1
 2558  1712  1714  1
 2559  1712  1883  1
 2560  1713  1715  1
 2561  1713  1714  1
 2562  1714  1885  1
 2563  1715  1716  1
 2564  1716  1718  1
 2565  1716  1887  1
 2566  1717  1719  1
 2567  1717  1718  1
 2568  1718  1889  1
 2569  1719  1720  1
 2570  1720  1891  1
 2571  1721  1722  1
 2572  1721  1723  1
 2573  1722  1893  1
 2574  1723  1724  1
 2575  1724  1726  1
 2576  1724  1895  1
 2577  1725  1726  1
 2578  1725  1727  1
 2579  1726  1897  1
 2580  1727  1728  1
 2581  1728  1730  1
 2582  1728  1899  1
 2583  1729  1730  1
 2584  1729  1731  1
 2585  1730  1901  1
 2586  1731  1732  1
 2587  1732  1734  1
 2588  1732  1903  1
 2589  1733  1734  1
 2590  1733  1735  1
 2591  1734  1905  1
 2592  1735  1736  1
 2593  1736  1738  1
 2594  1736  1907  1
 2595  1737  1738  1
 2596  1737  1739  1
 2597  1738  1909  1
 2598  1739  1740  1
 2599  1740  1742  1
 2600  1740  1911  1
 2601  1741  1742  1
 2602  1741  1743  1
 2603  1742  1913  1
 2604  1743  1744  1
 2605  1744  1746  1
 2606  1744  1915  1
 2607  1745  1746  1
 2608  1745  1747  1
 2609  1746  1917  1
 2610  1747  1748  1
 2611  1748  1750  1
 2612  1748  1919  1
 2613  1749  1750  1
 2614  1749  1751  1
 2615  1750  1921  1
 2616  1751  1752  1
 2617  1752  1754  1
 2618  1752  1923  1
 2619  1753  1755  1
 2620  1753  1754  1
 2621  1754  1925  1
 2622  1755  1756  1
 2623  1756  1758  1
 2624  1756  1927  1
 2625  1757  1759  1
 2626  1757  1758  1
 2627  1758  1929  1
 2628  1759  1760  1
 2629  1760  1762  1
 2630  1760  1931  1
 2631  1761  1763  1
 2632  1761  1762  1
 2633  1762  1933  1
 2634  1763  1764  1
 2635  1764  1766  1
 2636  1764  1935  1
 2637  1765  1767  1
 2638  1765  1766  1
 2639  1766  1937  1
 2640  1767  1768  1
 2641  1768  1770  1
 2642  1768  1939  1
 2643  1769  1770  1
 2644  1769  1771  1
 2645  1770  1941  1
 2646  1771  1772  1
 2647  1772  1774  1
 2648  1772  1943  1
 2649  1773  1774  1
 2650  1773  1775  1
 2651  1774  1945  1
 2652  1775  1776  1
 2653  1776  1778  1
 2654  1776  1947  1
 2655  1777  1778  1
 2656  1777  1779  1
 2657  1778  1949  1
 2658  1779  1780  1
 2659  1780  1782  1
 2660  1780  1951  1
 2661  1781  1782  1
 2662  1781  1783  1
 2663  1782  1953  1
 2664  1783  1784  1
 2665  1784  1786  1
 2666  1784  1955  1
 2667  1785  1786  1
 2668  1785  1787  1
 2669  1786  1957  1
 2670  1787  1788  1
 2671  1788  1790  1
 2672  1788  1959  1
 2673  1789  1790  1
 2674  1789  1791  1
 2675  1790  1961  1
 2676  1791  1792  1
 2677  1792  1794  1
 2678  1792  1963  1
 2679  1793  1794  1
 2680  1793  1795  1
 2681  1794  1965  1
 2682  1795  1796  1
 2683  1796  1798  1
 2684  1796  1967  1
 2685  1797  1798  1
 2686  1797  1799  1
 2687  1798  1969  1
 2688  1799  1800  1
 2689  1800  1802  1
 2690  1800  1971  1
 2691  1801  1803  1
 2692  1801  1802  1
 2693  1802  1973  1
 2694  1803  1804  1
 2695  1804  1806  1
 2696  1804  1975  1
 2697  1805  1806  1
 2698  1805  1807  1
 2699  1806  1977  1
 2700  1807  1808  1
 2701  1808  1810  1
 2702  1808  1979  1
 2703  1809  1811  1
 2704  1809  1810  1
 2705  1810  1981  1
 2706  1811  1812  1
 2707  1812  1814  1
 2708  1812  1983  1
 2709  1813  1815  1
 2710  1813  1814  1
 2711  1814  1985  1
 2712  1815  1816  1
 2713  1816  1818  1
 2714  1816  1987  1
 2715  1817  1818  1
 2716  1817  1819  1
 2717  1818  1989  1
 2718  1819  1820  1
 2719  1820  1822  1
 2720  1820  1991  1
 2721  1821  1822  1
 2722  1821  1823  1
 2723  1822  1993  1
 2724  1823  1824  1
 2725  1824  1826  1
 2726  1824  1995  1
 2727  1825  1826  1
 2728  1825  1827  1
 2729  1826  1997  1
 2730  1827  1828  1
 2731  1828  1830  1
 2732  1828  1999  1
 2733  1829  1830  1
 2734  1829  1831  1
 2735  1830  2001  1
 2736  1831  1832  1
 2737  1832  1834  1
 2738  1832  2003  1
 2739  1833  1834  1
 2740  1833  1835  1
 2741  1834  2005  1
 2742  1835  1836  1
 2743  1836  1838  1
 2744  1836  2007  1
 2745  1837  1838  1
 2746  1837  1839  1
 2747  1838  2009  1
 2748  1839  1840  1
 2749  1840  1842  1
 2750  1840  2011  1
 2751  1841  1842  1
 2752  1841  1843  1
 2753  1842  2013  1
 2754  1843  1844  1
 2755  1844  1846  1
 2756  1844  2015  1
 2757  1845  1846  1
 2758  1845  1847  1
 2759  1846  2017  1
 2760  1847  1848  1
 2761  1848  1850  1
 2762  1848  2019  1
 2763  1849  1851  1
 2764  1849  1850  1
 2765  1850  2021  1
 2766  1851  1852  1
 2767  1852  1854  1
 2768  1852  2023  1
 2769  1853  1855  1
 2770  1853  1854  1
 2771  1854  2025  1
 2772  1855  1856  1
 2773  1856  1858  1
 2774  1856  2027  1
 2775  1857  1859  1
 2776  1857  1858  1
 2777  1858  2029  1
 2778  1859  1860  1
 2779  1860  1862  1
 2780  1860  2031  1
 2781  1861  1863  1
 2782  1861  1862  1
 2783  1862  2033  1
 2784  1863  1864  1
 2785  1864  1866  1
 2786  1864  2035  1
 2787  1865  1866  1
 2788  1865  1867  1
 2789  1866  2037  1
 2790  1867  1868  1
 2791  1868  1870  1
 2792  1868  2039  1
 2793  1869  1870  1
 2794  1869  1871  1
 2795  1870  2041  1
 2796  1871  1872  1
 2797  1872  1874  1
 2798  1872  2043  1
 2799  1873  1874  1
 2800  1873  1875  1
 2801  1874  2045  1
 2802  1875  1876  1
 2803  1876  1878  1
 2804  1876  2047  1
 2805  1877  1878  1
 2806  1877  1879  1
 2807  1878  2049  1
 2808  1879  1880  1
 2809  1880  1882  1
 2810  1880  2051  1
 2811  1881  1882  1
 2812  1881  1883  1
 2813  1882  2053  1
 2814  1883  1884  1
 2815  1884  1886  1
 2816  1884  2055  1
 2817  1885  1886  1
 2818  1885  1887  1
 2819  1886  2057  1
 2820  1887  1888  1
 2821  1888  1890  1
 2822  1888  2059  1
 2823  1889  1890  1
 2824  1889  1891  1
 2825  1890  2061  1
 2826  1891  1892  1
 2827  1892  2063  1
 2828  1893  1894  1
 2829  1893  1895  1
 2830  1894  2065  1
 2831  1895  1896  1
 2832  1896  1898  1
 2833  1896  2067  1
 2834  1897  1898  1
 2835  1897  1899  1
 2836  1898  2069  1
 2837  1899  1900  1
 2838  1900  1902  1
 2839  1900  2071  1
 2840  1901  1902  1
 2841  1901  1903  1
 2842  1902  2073  1
 2843  1903  1904  1
 2844  1904  1906  1
 2845  1904  2075  1
 2846  1905  1906  1
 2847  1905  1907  1
 2848  1906  2077  1
 2849  1907  1908  1
 2850  1908  1910  1
 2851  1908  2079  1
 2852  1909  1910  1
 2853  1909  1911  1
 2854  1910  2081  1
 2855  1911  1912  1
 2856  1912  1914  1
 2857  1912  2083  1
 2858  1913  1914  1
 2859  1913  1915  1
 2860  1914  2085  1
 2861  1915  1916  1
 2862  1916  1918  1
 2863  1916  2087  1
 2864  1917  1918  1
 2865  1917  1919  1
 2866  1918  2089  1
 2867  1919  1920  1
 2868  1920  1922  1
 2869  1920  2091  1
 2870  1921  1922  1
 2871  1921  1923  1
 2872  1922  2093  1
 2873  1923  1924  1
 2874  1924  1926  1
 2875  1924  2095  1
 2876  1925  1927  1
 2877  1925  1926  1
 2878  1926  2097  1
 2879  1927  1928  1
 2880  1928  1930  1
 2881  1928  2099  1
 2882  1929  1930  1
 2883  1929  1931  1
 2884  1930  2101  1
 2885  1931  1932  1
 2886  1932  1934  1
 2887  1932  2103  1
 2888  1933  1935  1
 2889  1933  1934  1
 2890  1934  2105  1
 2891  1935  1936  1
 2892  1936  1938  1
 2893  1936  2107  1
 2894  1937  1939  1
 2895  1937  1938  1
 2896  1938  2109  1
 2897  1939  1940  1
 2898  1940  1942  1
 2899  1940  2111  1
 2900  1941  1942  1
 2901  1941  1943  1
 2902  1942  2113  1
 2903  1943  1944  1
 2904  1944  1946  1
 2905  1944  2115  1
 2906  1945  1946  1
 2907  1945  1947  1
 2908  1946  2117  1
 2909  1947  1948  1
 2910  1948  1950  1
 2911  1948  2119  1
 2912  1949  1950  1
 2913  1949  1951  1
 2914  1950  2121  1
 2915  1951  1952  1
 2916  1952  1954  1
 2917  1952  2123  1
 2918  1953  1954  1
 2919  1953  1955  1
 2920  1954  2125  1
 2921  1955  1956  1
 2922  1956  1958  1
 2923  1956  2127  1
 2924  1957  1958  1
 2925  1957  1959  1
 2926  1958  2129  1
 2927  1959  1960  1
 2928  1960  1962  1
 2929  1960  2131  1
 2930  1961  1962  1
 2931  1961  1963  1
 2932  1962  2133  1
 2933  1963  1964  1
 2934  1964  1966  1
 2935  1964  2135  1
 2936  1965  1966  1
 2937  1965  1967  1
 2938  1966  2137  1
 2939  1967  1968  1
 2940  1968  1970  1
 2941  1968  2139  1
 2942  1969  1970  1
 2943  1969  1971  1
 2944  1970  2141  1
 2945  1971  1972  1
 2946  1972  1974  1
 2947  1972  2143  1
 2948  1973  1975  1
 2949  1973  1974  1
 2950  1974  2145  1
 2951  1975  1976  1
 2952  1976  1978  1
 2953  1976  2147  1
 2954  1977  1979  1
 2955  1977  1978  1
 2956  1978  2149  1
 2957  1979  1980  1
 2958  1980  1982  1
 2959  1980  2151  1
 2960  1981  1983  1
 2961  1981  1982  1
 2962  1982  2153  1
 2963  1983  1984  1
 2964  1984  1986  1
 2965  1984  2155  1
 2966  1985  1987  1
 2967  1985  1986  1
 2968  1986  2157  1
 2969  1987  1988  1
 2970  1988  1990  1
 2971  1988  2159  1
 2972  1989  1990  1
 2973  1989  1991  1
 2974  1990  2161  1
 2975  1991  1992  1
 2976  1992  1994  1
 2977  1992  2163  1
 2978  1993  1994  1
 2979  1993  1995  1
 2980  1994  2165  1
 2981  1995  1996  1
 2982  1996  1998  1
 2983  1996  2167  1
 2984  1997  1998  1
 2985  1997  1999  1
 2986  1998  2169  1
 2987  1999  2000  1
 2988  2000  2002  1
 2989  2000  2171  1
 2990  2001  2002  1
 2991  2001  2003  1
 2992  2002  2173  1
 2993  2003  2004  1
 2994  2004  2006  1
 2995  2004  2175  1
 2996  2005  2006  1
 2997  2005  2007  1
 2998  2006  2177  1
 2999  2007  2008  1
 3000  2008  2010  1
 3001  2008  2179  1
 3002  2009  2010  1
 3003  2009  2011  1
 3004  2010  2181  1
 3005  2011  2012  1
 3006  2012  2014  1
 3007  2012  2183  1
 3008  2013  2014  1
 3009  2013  2015  1
 3010  2014  2185  1
 3011  2015  2016  1
 3012  2016  2018  1
 3013  2016  2187  1
 3014  2017  2018  1
 3015  2017  2019  1
 3016  2018  2189  1
 3017  2019  2020  1
 3018  2020  2022  1
 3019  2020  2191  1
 3020  2021  2022  1
 3021  2021  2023  1
 3022  2022  2193  1
 3023  2023  2024  1
 3024  2024  2026  1
 3025  2024  2195  1
 3026  2025  2027  1
 3027  2025  2026  1
 3028  2026  2197  1
 3029  2027  2028  1
 3030  2028  2030  1
 3031  2028  2199  1
 3032  2029  2031  1
 3033  2029  2030  1
 3034  2030  2201  1
 3035  2031  2032  1
 3036  2032  2034  1
 3037  2032  2203  1
 3038  2033  2035  1
 3039  2033  2034  1
 3040  2034  2205  1
 3041  2035  2036  1
 3042  2036  2038  1
 3043  2036  2207  1
 3044  2037  2038  1
 3045  2037  2039  1
 3046  2038  2209  1
 3047  2039  2040  1
 3048  2040  2042  1
 3049  2040  2211  1
 3050  2041  2042  1
 3051  2041  2043  1
 3052  2042  2213  1
 3053  2043  2044  1
 3054  2044  2046  1
 3055  2044  2215  1
 3056  2045  2046  1
 3057  2045  2047  1
 3058  2046  2217  1
 3059  2047  2048  1
 3060  2048  2050  1
 3061  2048  2219  1
 3062  2049  2050  1
 3063  2049  2051  1
 3064  2050  2221  1
 3065  2051  2052  1
 3066  2052  2054  1
 3067  2052  2223  1
 3068  2053  2054  1
 3069  2053  2055  1
 3070  2054  2225  1
 3071  2055  2056  1
 3072  2056  2058  1
 3073  2056  2227  1
 3074  2057  2058  1
 3075  2057  2059  1
 3076  2058  2229  1
 3077  2059  2060  1
 3078  2060  2062  1
 3079  2060  2231  1
 3080  2061  2062  1
 3081  2061  2063  1
 3082  2062  2233  1
 3083  2063  2064  1
 3084  2064  2235  1
 3085  2065  2067  1
 3086  2065  2066  1
 3087  2066  2237  1
 3088  2067  2068  1
 3089  2068  2239  1
 3090  2068  2070  1
 3091  2069  2071  1
 3092  2069  2070  1
 3093  2070  2241  1
 3094  2071  2072  1
 3095  2072  2243  1
 3096  2072  2074  1
 3097  2073  2075  1
 3098  2073  2074  1
 3099  2074  2245  1
 3100  2075  2076  1
 3101  2076  2247  1
 3102  2076  2078  1
 3103  2077  2079  1
 3104  2077  2078  1
 3105  2078  2249  1
 3106  2079  2080  1
 3107  2080  2251  1
 3108  2080  2082  1
 3109  2081  2083  1
 3110  2081  2082  1
 3111  2082  2253  1
 3112  2083  2084  1
 3113  2084  2255  1
 3114  2084  2086  1
 3115  2085  2087  1
 3116  2085  2086  1
 3117  2086  2257  1
 3118  2087  2088  1
 3119  2088  2259  1
 3120  2088  2090  1
 3121  2089  2091  1
 3122  2089  2090  1
 3123  2090  2261  1
 3124  2091  2092  1
 3125  2092  2263  1
 3126  2092  2094  1
 3127  2093  2095  1
 3128  2093  2094  1
 3129  2094  2265  1
 3130  2095  2096  1
 3131  2096  2267  1
 3132  2096  2098  1
 3133  2097  2099  1
 3134  2097  2098  1
 3135  2098  2269  1
 3136  2099  2100  1
 3137  2100  2102  1
 3138  2100  2271  1
 3139  2101  2103  1
 3140  2101  2102  1
 3141  2102  2273  1
 3142  2103  2104  1
 3143  2104  2106  1
 3144  2104  2275  1
 3145  2105  2107  1
 3146  2105  2106  1
 3147  2106  2277  1
 3148  2107  2108  1
 3149  2108  2110  1
 3150  2108  2279  1
 3151  2109  2111  1
 3152  2109  2110  1
 3153  2110  2281  1
 3154  2111  2112  1
 3155  2112  2114  1
 3156  2112  2283  1
 3157  2113  2115  1
 3158  2113  2114  1
 3159  2114  2285  1
 3160  2115  2116  1
 3161  2116  2287  1
 3162  2116  2118  1
 3163  2117  2119  1
 3164  2117  2118  1
 3165  2118  2289  1
 3166  2119  2120  1
 3167  2120  2291  1
 3168  2120  2122  1
 3169  2121  2123  1
 3170  2121  2122  1
 3171  2122  2293  1
 3172  2123  2124  1
 3173  2124  2295  1
 3174  2124  2126  1
 3175  2125  2127  1
 3176  2125  2126  1
 3177  2126  2297  1
 3178  2127  2128  1
 3179  2128  2299  1
 3180  2128  2130  1
 3181  2129  2131  1
 3182  2129  2130  1
 3183  2130  2301  1
 3184  2131  2132  1
 3185  2132  2303  1
 3186  2132  2134  1
 3187  2133  2135  1
 3188  2133  2134  1
 3189  2134  2305  1
 3190  2135  2136  1
 3191  2136  2307  1
 3192  2136  2138  1
 3193  2137  2139  1
 3194  2137  2138  1
 3195  2138  2309  1
 3196  2139  2140  1
 3197  2140  2311  1
 3198  2140  2142  1
 3199  2141  2143  1
 3200  2141  2142  1
 3201  2142  2313  1
 3202  2143  2144  1
 3203  2144  2315  1
 3204  2144  2146  1
 3205  2145  2147  1
 3206  2145  2146  1
 3207  2146  2317  1
 3208  2147  2148  1
 3209  2148  2150  1
 3210  2148  2319  1
 3211  2149  2151  1
 3212  2149  2150  1
 3213  2150  2321  1
 3214  2151  2152  1
 3215  2152  2154  1
 3216  2152  2323  1
 3217  2153  2155  1
 3218  2153  2154  1
 3219  2154  2325  1
 3220  2155  2156  1
 3221  2156  2158  1
 3222  2156  2327  1
 3223  2157  2159  1
 3224  2157  2158  1
 3225  2158  2329  1
 3226  2159  2160  1
 3227  2160  2331  1
 3228  2160  2162  1
 3229  2161  2163  1
 3230  2161  2162  1
 3231  2162  2333  1
 3232  2163  2164  1
 3233  2164  2335  1
 3234  2164  2166  1
 3235  2165  2167  1
 3236  2165  2166  1
 3237  2166  2337  1
 3238  2167  2168  1
 3239  2168  2339  1
 3240  2168  2170  1
 3241  2169  2171  1
 3242  2169  2170  1
 3243  2170  2341  1
 3244  2171  2172  1
 3245  2172  2343  1
 3246  2172  2174  1
 3247  2173  2175  1
 3248  2173  2174  1
 3249  2174  2345  1
 3250  2175  2176  1
 3251  2176  2347  1
 3252  2176  2178  1
 3253  2177  2179  1
 3254  2177  2178  1
 3255  2178  2349  1
 3256  2179  2180  1
 3257  2180  2351  1
 3258  2180  2182  1
 3259  2181  2183  1
 3260  2181  2182  1
 3261  2182  2353  1
 3262  2183  2184  1
 3263  2184  2355  1
 3264  2184  2186  1
 3265  2185  2187  1
 3266  2185  2186  1
 3267  2186  2357  1
 3268  2187  2188  1
 3269  2188  2359  1
 3270  2188  2190  1
 3271  2189  2191  1
 3272  2189  2190  1
 3273  2190  2361  1
 3274  2191  2192  1
 3275  2192  2194  1
 3276  2192  2363  1
 3277  2193  2195  1
 3278  2193  2194  1
 3279  2194  2365  1
 3280  2195  2196  1
 3281  2196  2198  1
 3282  2196  2367  1
 3283  2197  2199  1
 3284  2197  2198  1
 3285  2198  2369  1
 3286  2199  2200  1
 3287  2200  2202  1
 3288  2200  2371  1
 3289  2201  2203  1
 3290  2201  2202  1
 3291  2202  2373  1
 3292  2203  2204  1
 3293  2204  2206  1
 3294  2204  2375  1
 3295  2205  2207  1
 3296  2205  2206  1
 3297  2206  2377  1
 3298  2207  2208  1
 3299  2208  2379  1
 3300  2208  2210  1
 3301  2209  2211  1
 3302  2209  2210  1
 3303  2210  2381  1
 3304  2211  2212  1
 3305  2212  2383  1
 3306  2212  2214  1
 3307  2213  2215  1
 3308  2213  2214  1
 3309  2214  2385  1
 3310  2215  2216  1
 3311  2216  2387  1
 3312  2216  2218  1
 3313  2217  2219  1
 3314  2217  2218  1
 3315  2218  2389  1
 3316  2219  2220  1
 3317  2220  2391  1
 3318  2220  2222  1
 3319  2221  2223  1
 3320  2221  2222  1
 3321  2222  2393  1
 3322  2223  2224  1
 3323  2224  2395  1
 3324  2224  2226  1
 3325  2225  2227  1
 3326  2225  2226  1
 3327  2226  2397  1
 3328  2227  2228  1
 3329  2228  2399  1
 3330  2228  2230  1
 3331  2229  2231  1
 3332  2229  2230  1
 3333  2230  2401  1
 3334  2231  2232  1
 3335  2232  2403  1
 3336  2232  2234  1
 3337  2233  2235  1
 3338  2233  2234  1
 3339  2234  2405  1
 3340  2235  2236  1
 3341  2236  2407  1
 3342  2237  2239  1
 3343  2237  2238  1
 3344  2238  2409  1
 3345  2239  2240  1
 3346  2240  2411  1
 3347  2240  2242  1
 3348  2241  2243  1
 3349  2241  2242  1
 3350  2242  2413  1
 3351  2243  2244  1
 3352  2244  2415  1
 3353  2244  2246  1
 3354  2245  2247  1
 3355  2245  2246  1
 3356  2246  2417  1
 3357  2247  2248  1
 3358  2248  2419  1
 3359  2248  2250  1
 3360  2249  2251  1
 3361  2249  2250  1
 3362  2250  2421  1
 3363  2251  2252  1
 3364  2252  2423  1
 3365  2252  2254  1
 3366  2253  2255  1
 3367  2253  2254  1
 3368  2254  2425  1
 3369  2255  2256  1
 3370  2256  2427  1
 3371  2256  2258  1
 3372  2257  2259  1
 3373  2257  2258  1
 3374  2258  2429  1
 3375  2259  2260  1
 3376  2260  2431  1
 3377  2260  2262  1
 3378  2261  2263  1
 3379  2261  2262  1
 3380  2262  2433  1
 3381  2263  2264  1
 3382  2264  2435  1
 3383  2264  2266  1
 3384  2265  2267  1
 3385  2265  2266  1
 3386  2266  2437  1
 3387  2267  2268  1
 3388  2268  2439  1
 3389  2268  2270  1
 3390  2269  2271  1
 3391  2269  2270  1
 3392  2270  2441  1
 3393  2271  2272  1
 3394  2272  2274  1
 3395  2272  2443  1
 3396  2273  2275  1
 3397  2273  2274  1
 3398  2274  2445  1
 3399  2275  2276  1
 3400  2276  2278  1
 3401  2276  2447  1
 3402  2277  2279  1
 3403  2277  2278  1
 3404  2278  2449  1
 3405  2279  2280  1
 3406  2280  2282  1
 3407  2280  2451  1
 3408  2281  2283  1
 3409  2281  2282  1
 3410  2282  2453  1
 3411  2283  2284  1
 3412  2284  2455  1
 3413  2284  2286  1
 3414  2285  2287  1
 3415  2285  2286  1
 3416  2286  2457  1
 3417  2287  2288  1
 3418  2288  2459  1
 3419  2288  2290  1
 3420  2289  2291  1
 3421  2289  2290  1
 3422  2290  2461  1
 3423  2291  2292  1
 3424  2292  2463  1
 3425  2292  2294  1
 3426  2293  2295  1
 3427  2293  2294  1
 3428  2294  2465  1
 3429  2295  2296  1
 3430  2296  2467  1
 3431  2296  2298  1
 3432  2297  2299  1
 3433  2297  2298  1
 3434  2298  2469  1
 3435  2299  2300  1
 3436  2300  2471  1
 3437  2300  2302  1
 3438  2301  2303  1
 3439  2301  2302  1
 3440  2302  2473  1
 3441  2303  2304  1
 3442  2304  2475  1
 3443  2304  2306  1
 3444  2305  2307  1
 3445  2305  2306  1
 3446  2306  2477  1
 3447  2307  2308  1
 3448  2308  2479  1
 3449  2308  2310  1
 3450  2309  2311  1
 3451  2309  2310  1
 3452  2310  2481  1
 3453  2311  2312  1
 3454  2312  2483  1
 3455  2312  2314  1
 3456  2313  2315  1
 3457  2313  2314  1
 3458  2314  2485  1
 3459  2315  2316  1
 3460  2316  2318  1
 3461  2316  2487  1
 3462  2317  2319  1
 3463  2317  2318  1
 3464  2318  2489  1
 3465  2319  2320  1
 3466  2320  2322  1
 3467  2320  2491  1
 3468  2321  2323  1
 3469  2321  2322  1
 3470  2322  2493  1
 3471  2323  2324  1
 3472  2324  2326  1
 3473  2324  2495  1
 3474  2325  2327  1
 3475  2325  2326  1
 3476  2326  2497  1
 3477  2327  2328  1
 3478  2328  2330  1
 3479  2328  2499  1
 3480  2329  2331  1
 3481  2329  2330  1
 3482  2330  2501  1
 3483  2331  2332  1
 3484  2332  2503  1
 3485  2332  2334  1
 3486  2333  2335  1
 3487  2333  2334  1
 3488  2334  2505  1
 3489  2335  2336  1
 3490  2336  2507  1
 3491  2336  2338  1
 3492  2337  2339  1
 3493  2337  2338  1
 3494  2338  2509  1
 3495  2339  2340  1
 3496  2340  2511  1
 3497  2340  2342  1
 3498  2341  2343  1
 3499  2341  2342  1
 3500  2342  2513  1
 3501  2343  2344  1
 3502  2344  2515  1
 3503  2344  2346  1
 3504  2345  2347  1
 3505  2345  2346  1
 3506  2346  2517  1
 3507  2347  2348  1
 3508  2348  2519  1
 3509  2348  2350  1
 3510  2349  2351  1
 3511  2349  2350  1
 3512  2350  2521  1
 3513  2351  2352  1
 3514  2352  2523  1
 3515  2352  2354  1
 3516  2353  2355  1
 3517  2353  2354  1
 3518  2354  2525  1
 3519  2355  2356  1
 3520  2356  2527  1
 3521  2356  2358  1
 3522  2357  2359  1
 3523  2357  2358  1
 3524  2358  2529  1
 3525  2359  2360  1
 3526  2360  2531  1
 3527  2360  2362  1
 3528  2361  2363  1
 3529  2361  2362  1
 3530  2362  2533  1
 3531  2363  2364  1
 3532  2364  2366  1
 3533  2364  2535  1
 3534  2365  2367  1
 3535  2365  2366  1
 3536  2366  2537  1
 3537  2367  2368  1
 3538  2368  2370  1
 3539  2368  2539  1
 3540  2369  2371  1
 3541  2369  2370  1
 3542  2370  2541  1
 3543  2371  2372  1
 3544  2372  2374  1
 3545  2372  2543  1
 3546  2373  2375  1
 3547  2373  2374  1
 3548  2374  2545  1
 3549  2375  2376  1
 3550  2376  2547  1
 3551  2376  2378  1
 3552  2377  2379  1
 3553  2377  2378  1
 3554  2378  2549  1
 3555  2379  2380  1
 3556  2380  2551  1
 3557  2380  2382  1
 3558  2381  2383  1
 3559  2381  2382  1
 3560  2382  2553  1
 3561  2383  2384  1
 3562  2384  2555  1
 3563  2384  2386  1
 3564  2385  2387  1
 3565  2385  2386  1
 3566  2386  2557  1
 3567  2387  2388  1
 3568  2388  2559  1
 3569  2388  2390  1
 3570  2389  2391  1
 3571  2389  2390  1
 3572  2390  2561  1
 3573  2391  2392  1
 3574  2392  2563  1
 3575  2392  2394  1
 3576  2393  2395  1
 3577  2393  2394  1
 3578  2394  2565  1
 3579  2395  2396  1
 3580  2396  2567  1
 3581  2396  2398  1
 3582  2397  2399  1
 3583  2397  2398  1
 3584  2398  2569  1
 3585  2399  2400  1
 3586  2400  2571  1
 3587  2400  2402  1
 3588  2401  2403  1
 3589  2401  2402  1
 3590  2402  2573  1
 3591  2403  2404  1
 3592  2404  2575  1
 3593  2404  2406  1
 3594  2405  2407  1
 3595  2405  2406  1
 3596  2406  2577  1
 3597  2407  2408  1
 3598  2408  2579  1
 3599  2409  2411  1
 3600  2409  2410  1
 3601  2410  2581  1
 3602  2411  2412  1
 3603  2412  2414  1
 3604  2412  2583  1
 3605  2413  2415  1
 3606  2413  2414  1
 3607  2414  2585  1
 3608  2415  2416  1
 3609  2416  2418  1
 3610  2416  2587  1
 3611  2417  2419  1
 3612  2417  2418  1
 3613  2418  2589  1
 3614  2419  2420  1
 3615  2420  2422  1
 3616  2420  2591  1
 3617  2421  2423  1
 3618  2421  2422  1
 3619  2422  2593  1
 3620  2423  2424  1
 3621  2424  2426  1
 3622  2424  2595  1
 3623  2425  2427  1
 3624  2425  2426  1
 3625  2426  2597  1
 3626  2427  2428  1
 3627  2428  2430  1
 3628  2428  2599  1
 3629  2429  2431  1
 3630  2429  2430  1
 3631  2430  2601  1
 3632  2431  2432  1
 3633  2432  2434  1
 3634  2432  2603  1
 3635  2433  2435  1
 3636  2433  2434  1
 3637  2434  2605  1
 3638  2435  2436  1
 3639  2436  2438  1
 3640  2436  2607  1
 3641  2437  2439  1
 3642  2437  2438  1
 3643  2438  2609  1
 3644  2439  2440  1
 3645  2440  2442  1
 3646  2440  2611  1
 3647  2441  2443  1
 3648  2441  2442  1
 3649  2442  2613  1
 3650  2443  2444  1
 3651  2444  2446  1
 3652  2444  2615  1
 3653  2445  2447  1
 3654  2445  2446  1
 3655  2446  2617  1
 3656  2447  2448  1
 3657  2448  2450  1
 3658  2448  2619  1
 3659  2449  2451  1
 3660  2449  2450  1
 3661  2450  2621  1
 3662  2451  2452  1
 3663  2452  2454  1
 3664  2452  2623  1
 3665  2453  2455  1
 3666  2453  2454  1
 3667  2454  2625  1
 3668  2455  2456  1
 3669  2456  2458  1
 3670  2456  2627  1
 3671  2457  2459  1
 3672  2457  2458  1
 3673  2458  2629  1
 3674  2459  2460  1
 3675  2460  2462  1
 3676  2460  2631  1
 3677  2461  2463  1
 3678  2461  2462  1
 3679  2462  2633  1
 3680  2463  2464  1
 3681  2464  2466  1
 3682  2464  2635  1
 3683  2465  2467  1
 3684  2465  2466  1
 3685  2466  2637  1
 3686  2467  2468  1
 3687  2468  2470  1
 3688  2468  2639  1
 3689  2469  2471  1
 3690  2469  2470  1
 3691  2470  2641  1
 3692  2471  2472  1
 3693  2472  2474  1
 3694  2472  2643  1
 3695  2473  2475  1
 3696  2473  2474  1
 3697  2474  2645  1
 3698  2475  2476  1
 3699  2476  2478  1
 3700  2476  2647  1
 3701  2477  2479  1
 3702  2477  2478  1
 3703  2478  2649  1
 3704  2479  2480  1
 3705  2480  2482  1
 3706  2480  2651  1
 3707  2481  2483  1
 3708  2481  2482  1
 3709  2482  2653  1
 3710  2483  2484  1
 3711  2484  2486  1
 3712  2484  2655  1
 3713  2485  2487  1
 3714  2485  2486  1
 3715  2486  2657  1
 3716  2487  2488  1
 3717  2488  2490  1
 3718  2488  2659  1
 3719  2489  2491  1
 3720  2489  2490  1
 3721  2490  2661  1
 3722  2491  2492  1
 3723  2492  2494  1
 3724  2492  2663  1
 3725  2493  2495  1
 3726  2493  2494  1
 3727  2494  2665  1
 3728  2495  2496  1
 3729  2496  2498  1
 3730  2496  2667  1
 3731  2497  2499  1
 3732  2497  2498  1
 3733  2498  2669  1
 3734  2499  2500  1
 3735  2500  2502  1
 3736  2500  2671  1
 3737  2501  2503  1
 3738  2501  2502  1
 3739  2502  2673  1
 3740  2503  2504  1
 3741  2504  2506  1
 3742  2504  2675  1
 3743  2505  2507  1
 3744  2505  2506  1
 3745  2506  2677  1
 3746  2507  2508  1
 3747  2508  2510  1
 3748  2508  2679  1
 3749  2509  2511  1
 3750  2509  2510  1
 3751  2510  2681  1
 3752  2511  2512  1
 3753  2512  2514  1
 3754  2512  2683  1
 3755  2513  2515  1
 3756  2513  2514  1
 3757  2514  2685  1
 3758  2515  2516  1
 3759  2516  2518  1
 3760  2516  2687  1
 3761  2517  2519  1
 3762  2517  2518  1
 3763  2518  2689  1
 3764  2519  2520  1
 3765  2520  2522  1
 3766  2520  2691  1
 3767  2521  2523  1
 3768  2521  2522  1
 3769  2522  2693  1
 3770  2523  2524  1
 3771  2524  2526  1
 3772  2524  2695  1
 3773  2525  2527  1
 3774  2525  2526  1
 3775  2526  2697  1
 3776  2527  2528  1
 3777  2528  2530  1
 3778  2528  2699  1
 3779  2529  2531  1
 3780  2529  2530  1
 3781  2530  2701  1
 3782  2531  2532  1
 3783  2532  2534  1
 3784  2532  2703  1
 3785  2533  2535  1
 3786  2533  2534  1
 3787  2534  2705  1
 3788  2535  2536  1
 3789  2536  2538  1
 3790  2536  2707  1
 3791  2537  2539  1
 3792  2537  2538  1
 3793  2538  2709  1
 3794  2539  2540  1
 3795  2540  2542  1
 3796  2540  2711  1
 3797  2541  2543  1
 3798  2541  2542  1
 3799  2542  2713  1
 3800  2543  2544  1
 3801  2544  2546  1
 3802  2544  2715  1
 3803  2545  2547  1
 3804  2545  2546  1
 3805  2546  2717  1
 3806  2547  2548  1
 3807  2548  2550  1
 3808  2548  2719  1
 3809  2549  2551  1
 3810  2549  2550  1
 3811  2550  2721  1
 3812  2551  2552  1
 3813  2552  2554  1
 3814  2552  2723  1
 3815  2553  2555  1
 3816  2553  2554  1
 3817  2554  2725  1
 3818  2555  2556  1
 3819  2556  2558  1
 3820  2556  2727  1
 3821  2557  2559  1
 3822  2557  2558  1
 3823  2558  2729  1
 3824  2559  2560  1
 3825  2560  2562  1
 3826  2560  2731  1
 3827  2561  2563  1
 3828  2561  2562  1
 3829  2562  2733  1
 3830  2563  2564  1
 3831  2564  2566  1
 3832  2564  2735  1
 3833  2565  2567  1
 3834  2565  2566  1
 3835  2566  2737  1
 3836  2567  2568  1
 3837  2568  2570  1
 3838  2568  2739  1
 3839  2569  2571  1
 3840  2569  2570  1
 3841  2570  2741  1
 3842  2571  2572  1
 3843  2572  2574  1
 3844  2572  2743  1
 3845  2573  2575  1
 3846  2573  2574  1
 3847  2574  2745  1
 3848  2575  2576  1
 3849  2576  2578  1
 3850  2576  2747  1
 3851  2577  2579  1
 3852  2577  2578  1
 3853  2578  2749  1
 3854  2579  2580  1
 3855  2580  2751  1
 3856  2581  2582  1
 3857  2581  2583  1
 3858  2582  2753  1
 3859  2583  2584  1
 3860  2584  2586  1
 3861  2584  2755  1
 3862  2585  2586  1
 3863  2585  2587  1
 3864  2586  2757  1
 3865  2587  2588  1
 3866  2588  2590  1
 3867  2588  2759  1
 3868  2589  2590  1
 3869  2589  2591  1
 3870  2590  2761  1
 3871  2591  2592  1
 3872  2592  2594  1
 3873  2592  2763  1
 3874  2593  2594  1
 3875  2593  2595  1
 3876  2594  2765  1
 3877  2595  2596  1
 3878  2596  2598  1
 3879  2596  2767  1
 3880  2597  2598  1
 3881  2597  2599  1
 3882  2598  2769  1
 3883  2599  2600  1
 3884  2600  2602  1
 3885  2600  2771  1
 3886  2601  2602  1
 3887  2601  2603  1
 3888  2602  2773  1
 3889  2603  2604  1
 3890  2604  2606  1
 3891  2604  2775  1
 3892  2605  2606  1
 3893  2605  2607  1
 3894  2606  2777  1
 3895  2607  2608  1
 3896  2608  2610  1
 3897  2608  2779  1
 3898  2609  2610  1
 3899  2609  2611  1
 3900  2610  2781  1
 3901  2611  2612  1
 3902  2612  2614  1
 3903  2612  2783  1
 3904  2613  2615  1
 3905  2613  2614  1
 3906  2614  2785  1
 3907  2615  2616  1
 3908  2616  2618  1
 3909  2616  2787  1
 3910  2617  2619  1
 3911  2617  2618  1
 3912  2618  2789  1
 3913  2619  2620  1
 3914  2620  2622  1
 3915  2620  2791  1
 3916  2621  2623  1
 3917  2621  2622  1
 3918  2622  2793  1
 3919  2623  2624  1
 3920  2624  2626  1
 3921  2624  2795  1
 3922  2625  2627  1
 3923  2625  2626  1
 3924  2626  2797  1
 3925  2627  2628  1
 3926  2628  2630  1
 3927  2628  2799  1
 3928  2629  2630  1
 3929  2629  2631  1
 3930  2630  2801  1
 3931  2631  2632  1
 3932  2632  2634  1
 3933  2632  2803  1
 3934  2633  2634  1
 3935  2633  2635  1
 3936  2634  2805  1
 3937  2635  2636  1
 3938  2636  2638  1
 3939  2636  2807  1
 3940  2637  2638  1
 3941  2637  2639  1
 3942  2638  2809  1
 3943  2639  2640  1
 3944  2640  2642  1
 3945  2640  2811  1
 3946  2641  2642  1
 3947  2641  2643  1
 3948  2642  2813  1
 3949  2643  2644  1
 3950  2644  2646  1
 3951  2644  2815  1
 3952  2645  2646  1
 3953  2645  2647  1
 3954  2646  2817  1
 3955  2647  2648  1
 3956  2648  2650  1
 3957  2648  2819  1
 3958  2649  2650  1
 3959  2649  2651  1
 3960  2650  2821  1
 3961  2651  2652  1
 3962  2652  2654  1
 3963  2652  2823  1
 3964  2653  2654  1
 3965  2653  2655  1
 3966  2654  2825  1
 3967  2655  2656  1
 3968  2656  2658  1
 3969  2656  2827  1
 3970  2657  2658  1
 3971  2657  2659  1
 3972  2658  2829  1
 3973  2659  2660  1
 3974  2660  2662  1
 3975  2660  2831  1
 3976  2661  2663  1
 3977  2661  2662  1
 3978  2662  2833  1
 3979  2663  2664  1
 3980  2664  2666  1
 3981  2664  2835  1
 3982  2665  2667  1
 3983  2665  2666  1
 3984  2666  2837  1
 3985  2667  2668  1
 3986  2668  2670  1
 3987  2668  2839  1
 3988  2669  2670  1
 3989  2669  2671  1
 3990  2670  2841  1
 3991  2671  2672  1
 3992  2672  2674  1
 3993  2672  2843  1
 3994  2673  2675  1
 3995  2673  2674  1
 3996  2674  2845  1
 3997  2675  2676  1
 3998  2676  2678  1
 3999  2676  2847  1
 4000  2677  2678  1
 4001  2677  2679  1
 4002  2678  2849  1
 4003  2679  2680  1
 4004  2680  2682  1
 4005  2680  2851  1
 4006  2681  2682  1
 4007  2681  2683  1
 4008  2682  2853  1
 4009  2683  2684  1
 4010  2684  2686  1
 4011  2684  2855  1
 4012  2685  2686  1
 4013  2685  2687  1
 4014  2686  2857  1
 4015  2687  2688  1
 4016  2688  2690  1
 4017  2688  2859  1
 4018  2689  2690  1
 4019  2689  2691  1
 4020  2690  2861  1
 4021  2691  2692  1
 4022  2692  2694  1
 4023  2692  2863  1
 4024  2693  2694  1
 4025  2693  2695  1
 4026  2694  2865  1
 4027  2695  2696  1
 4028  2696  2698  1
 4029  2696  2867  1
 4030  2697  2698  1
 4031  2697  2699  1
 4032  2698  2869  1
 4033  2699  2700  1
 4034  2700  2702  1
 4035  2700  2871  1
 4036  2701  2702  1
 4037  2701  2703  1
 4038  2702  2873  1
 4039  2703  2704  1
 4040  2704  2706  1
 4041  2704  2875  1
 4042  2705  2706  1
 4043  2705  2707  1
 4044  2706  2877  1
 4045  2707  2708  1
 4046  2708  2710  1
 4047  2708  2879  1
 4048  2709  2711  1
 4049  2709  2710  1
 4050  2710  2881  1
 4051  2711  2712  1
 4052  2712  2714  1
 4053  2712  2883  1
 4054  2713  2715  1
 4055  2713  2714  1
 4056  2714  2885  1
 4057  2715  2716  1
 4058  2716  2718  1
 4059  2716  2887  1
 4060  2717  2719  1
 4061  2717  2718  1
 4062  2718  2889  1
 4063  2719  2720  1
 4064  2720  2722  1
 4065  2720  2891  1
 4066  2721  2723  1
 4067  2721  2722  1
 4068  2722  2893  1
 4069  2723  2724  1
 4070  2724  2726  1
 4071  2724  2895  1
 4072  2725  2726  1
 4073  2725  2727  1
 4074  2726  2897  1
 4075  2727  2728  1
 4076  2728  2730  1
 4077  2728  2899  1
 4078  2729  2730  1
 4079  2729  2731  1
 4080  2730  2901  1
 4081  2731  2732  1
 4082  2732  2734  1
 4083  2732  2903  1
 4084  2733  2734  1
 4085  2733  2735  1
 4086  2734  2905  1
 4087  2735  2736  1
 4088  2736  2738  1
 4089  2736  2907  1
 4090  2737  2738  1
 4091  2737  2739  1
 4092  2738  2909  1
 4093  2739  2740  1
 4094  2740  2742  1
 4095  2740  2911  1
 4096  2741  2742  1
 4097  2741  2743  1
 4098  2742  2913  1
 4099  2743  2744  1
 4100  2744  2746  1
 4101  2744  2915  1
 4102  2745  2746  1
 4103  2745  2747  1
 4104  2746  2917  1
 4105  2747  2748  1
 4106  2748  2750  1
 4107  2748  2919  1
 4108  2749  2750  1
 4109  2749  2751  1
 4110  2750  2921  1
 4111  2751  2752  1
 4112  2752  2923  1
 4113  2753  2754  1
 4114  2753  2755  1
 4115  2754  2925  1
 4116  2755  2756  1
 4117  2756  2758  1
 4118  2756  2927  1
 4119  2757  2758  1
 4120  2757  2759  1
 4121  2758  2929  1
 4122  2759  2760  1
 4123  2760  2762  1
 4124  2760  2931  1
 4125  2761  2762  1
 4126  2761  2763  1
 4127  2762  2933  1
 4128  2763  2764  1
 4129  2764  2766  1
 4130  2764  2935  1
 4131  2765  2766  1
 4132  2765  2767  1
 4133  2766  2937  1
 4134  2767  2768  1
 4135  2768  2770  1
 4136  2768  2939  1
 4137  2769  2770  1
 4138  2769  2771  1
 4139  2770  2941  1
 4140  2771  2772  1
 4141  2772  2774  1
 4142  2772  2943  1
 4143  2773  2774  1
 4144  2773  2775  1
 4145  2774  2945  1
 4146  2775  2776  1
 4147  2776  2778  1
 4148  2776  2947  1
 4149  2777  2778  1
 4150  2777  2779  1
 4151  2778  2949  1
 4152  2779  2780  1
 4153  2780  2782  1
 4154  2780  2951  1
 4155  2781  2782  1
 4156  2781  2783  1
 4157  2782  2953  1
 4158  2783  2784  1
 4159  2784  2786  1
 4160  2784  2955  1
 4161  2785  2787  1
 4162  2785  2786  1
 4163  2786  2957  1
 4164  2787  2788  1
 4165  2788  2790  1
 4166  2788  2959  1
 4167  2789  2791  1
 4168  2789  2790  1
 4169  2790  2961  1
 4170  2791  2792  1
 4171  2792  2794  1
 4172  2792  2963  1
 4173  2793  2794  1
 4174  2793  2795  1
 4175  2794  2965  1
 4176  2795  2796  1
 4177  2796  2798  1
 4178  2796  2967  1
 4179  2797  2799  1
 4180  2797  2798  1
 4181  2798  2969  1
 4182  2799  2800  1
 4183  2800  2802  1
 4184  2800  2971  1
 4185  2801  2802  1
 4186  2801  2803  1
 4187  2802  2973  1
 4188  2803  2804  1
 4189  2804  2806  1
 4190  2804  2975  1
 4191  2805  2806  1
 4192  2805  2807  1
 4193  2806  2977  1
 4194  2807  2808  1
 4195  2808  2810  1
 4196  2808  2979  1
 4197  2809  2810  1
 4198  2809  2811  1
 4199  2810  2981  1
 4200  2811  2812  1
 4201  2812  2814  1
 4202  2812  2983  1
 4203  2813  2814  1
 4204  2813  2815  1
 4205  2814  2985  1
 4206  2815  2816  1
 4207  2816  2818  1
 4208  2816  2987  1
 4209  2817  2818  1
 4210  2817  2819  1
 4211  2818  2989  1
 4212  2819  2820  1
 4213  2820  2822  1
 4214  2820  2991  1
 4215  2821  2822  1
 4216  2821  2823  1
 4217  2822  2993  1
 4218  2823  2824  1
 4219  2824  2826  1
 4220  2824  2995  1
 4221  2825  2826  1
 4222  2825  2827  1
 4223  2826  2997  1
 4224  2827  2828  1
 4225  2828  2830  1
 4226  2828  2999  1
 4227  2829  2830  1
 4228  2829  2831  1
 4229  2830  3001  1
 4230  2831  2832  1
 4231  2832  2834  1
 4232  2832  3003  1
 4233  2833  2835  1
 4234  2833  2834  1
 4235  2834  3005  1
 4236  2835  2836  1
 4237  2836  2838  1
 4238  2836  3007  1
 4239  2837  2839  1
 4240  2837  2838  1
 4241  2838  3009  1
 4242  2839  2840  1
 4243  2840  2842  1
 4244  2840  3011  1
 4245  2841  2843  1
 4246  2841  2842  1
 4247  2842  3013  1
 4248  2843  2844  1
 4249  2844  2846  1
 4250  2844  3015  1
 4251  2845  2847  1
 4252  2845  2846  1
 4253  2846  3017  1
 4254  2847  2848  1
 4255  2848  2850  1
 4256  2848  3019  1
 4257  2849  2850  1
 4258  2849  2851  1
 4259  2850  3021  1
 4260  2851  2852  1
 4261  2852  2854  1
 4262  2852  3023  1
 4263  2853  2854  1
 4264  2853  2855  1
 4265  2854  3025  1
 4266  2855  2856  1
 4267  2856  2858  1
 4268  2856  3027  1
 4269  2857  2858  1
 4270  2857  2859  1
 4271  2858  3029  1
 4272  2859  2860  1
 4273  2860  2862  1
 4274  2860  3031  1
 4275  2861  2862  1
 4276  2861  2863  1
 4277  2862  3033  1
 4278  2863  2864  1
 4279  2864  2866  1
 4280  2864  3035  1
 4281  2865  2866  1
 4282  2865  2867  1
 4283  2866  3037  1
 4284  2867  2868  1
 4285  2868  2870  1
 4286  2868  3039  1
 4287  2869  2870  1
 4288  2869  2871  1
 4289  2870  3041  1
 4290  2871  2872  1
 4291  2872  2874  1
 4292  2872  3043  1
 4293  2873  2874  1
 4294  2873  2875  1
 4295  2874  3045  1
 4296  2875  2876  1
 4297  2876  2878  1
 4298  2876  3047  1
 4299  2877  2878  1
 4300  2877  2879  1
 4301  2878  3049  1
 4302  2879  2880  1
 4303  2880  2882  1
 4304  2880  3051  1
 4305  2881  2883  1
 4306  2881  2882  1
 4307  2882  3053  1
 4308  2883  2884  1
 4309  2884  2886  1
 4310  2884  3055  1
 4311  2885  2886  1
 4312  2885  2887  1
 4313  2886  3057  1
 4314  2887  2888  1
 4315  2888  2890  1
 4316  2888  3059  1
 4317  2889  2891  1
 4318  2889  2890  1
 4319  2890  3061  1
 4320  2891  2892  1
 4321  2892  2894  1
 4322  2892  3063  1
 4323  2893  2895  1
 4324  2893  2894  1
 4325  2894  3065  1
 4326  2895  2896  1
 4327  2896  2898  1
 4328  2896  3067  1
 4329  2897  2898  1
 4330  2897  2899  1
 4331  2898  3069  1
 4332  2899  2900  1
 4333  2900  2902  1
 4334  2900  3071  1
 4335  2901  2902  1
 4336  2901  2903  1
 4337  2902  3073  1
 4338  2903  2904  1
 4339  2904  2906  1
 4340  2904  3075  1
 4341  2905  2906  1
 4342  2905  2907  1
 4343  2906  3077  1
 4344  2907  2908  1
 4345  2908  2910  1
 4346  2908  3079  1
 4347  2909  2910  1
 4348  2909  2911  1
 4349  2910  3081  1
 4350  2911  2912  1
 4351  2912  2914  1
 4352  2912  3083  1
 4353  2913  2914  1
 4354  2913  2915  1
 4355  2914  3085  1
 4356  2915  2916  1
 4357  2916  2918  1
 4358  2916  3087  1
 4359  2917  2918  1
 4360  2917  2919  1
 4361  2918  3089  1
 4362  2919  2920  1
 4363  2920  2922  1
 4364  2920  3091  1
 4365  2921  2922  1
 4366  2921  2923  1
 4367  2922  3093  1
 4368  2923  2924  1
 4369  2924  3095  1
 4370  2925  2927  1
 4371  2925  2926  1
 4372  2926  3097  1
 4373  2927  2928  1
 4374  2928  3099  1
 4375  2928  2930  1
 4376  2929  2931  1
 4377  2929  2930  1
 4378  2930  3101  1
 4379  2931  2932  1
 4380  2932  3103  1
 4381  2932  2934  1
 4382  2933  2935  1
 4383  2933  2934  1
 4384  2934  3105  1
 4385  2935  2936  1
 4386  2936  3107  1
 4387  2936  2938  1
 4388  2937  2939  1
 4389  2937  2938  1
 4390  2938  3109  1
 4391  2939  2940  1
 4392  2940  3111  1
 4393  2940  2942  1
 4394  2941  2943  1
 4395  2941  2942  1
 4396  2942  3113  1
 4397  2943  2944  1
 4398  2944  3115  1
 4399  2944  2946  1
 4400  2945  2947  1
 4401  2945  2946  1
 4402  2946  3117  1
 4403  2947  2948  1
 4404  2948  3119  1
 4405  2948  2950  1
 4406  2949  2951  1
 4407  2949  2950  1
 4408  2950  3121  1
 4409  2951  2952  1
 4410  2952  3123  1
 4411  2952  2954  1
 4412  2953  2955  1
 4413  2953  2954  1
 4414  2954  3125  1
 4415  2955  2956  1
 4416  2956  3127  1
 4417  2956  2958  1
 4418  2957  2959  1
 4419  2957  2958  1
 4420  2958  3129  1
 4421  2959  2960  1
 4422  2960  2962  1
 4423  2960  3131  1
 4424  2961  2963  1
 4425  2961  2962  1
 4426  2962  3133  1
 4427  2963  2964  1
 4428  2964  2966  1
 4429  2964  3135  1
 4430  2965  2967  1
 4431  2965  2966  1
 4432  2966  3137  1
 4433  2967  2968  1
 4434  2968  2970  1
 4435  2968  3139  1
 4436  2969  2971  1
 4437  2969  2970  1
 4438  2970  3141  1
 4439  2971  2972  1
 4440  2972  2974  1
 4441  2972  3143  1
 4442  2973  2975  1
 4443  2973  2974  1
 4444  2974  3145  1
 4445  2975  2976  1
 4446  2976  3147  1
 4447  2976  2978  1
 4448  2977  2979  1
 4449  2977  2978  1
 4450  2978  3149  1
 4451  2979  2980  1
 4452  2980  3151  1
 4453  2980  2982  1
 4454  2981  2983  1
 4455  2981  2982  1
 4456  2982  3153  1
 4457  2983  2984  1
 4458  2984  3155  1
 4459  2984  2986  1
 4460  2985  2987  1
 4461  2985  2986  1
 4462  2986  3157  1
 4463  2987  2988  1
 4464  2988  3159  1
 4465  2988  2990  1
 4466  2989  2991  1
 4467  2989  2990  1
 4468  2990  3161  1
 4469  2991  2992  1
 4470  2992  3163  1
 4471  2992  2994  1
 4472  2993  2995  1
 4473  2993  2994  1
 4474  2994  3165  1
 4475  2995  2996  1
 4476  2996  3167  1
 4477  2996  2998  1
 4478  2997  2999  1
 4479  2997  2998  1
 4480  2998  3169  1
 4481  2999  3000  1
 4482  3000  3171  1
 4483  3000  3002  1
 4484  3001  3003  1
 4485  3001  3002  1
 4486  3002  3173  1
 4487  3003  3004  1
 4488  3004  3006  1
 4489  3004  3175  1
 4490  3005  3007  1
 4491  3005  3006  1
 4492  3006  3177  1
 4493  3007  3008  1
 4494  3008  3179  1
 4495  3008  3010  1
 4496  3009  3011  1
 4497  3009  3010  1
 4498  3010  3181  1
 4499  3011  3012  1
 4500  3012  3014  1
 4501  3012  3183  1
 4502  3013  3015  1
 4503  3013  3014  1
 4504  3014  3185  1
 4505  3015  3016  1
 4506  3016  3018  1
 4507  3016  3187  1
 4508  3017  3019  1
 4509  3017  3018  1
 4510  3018  3189  1
 4511  3019  3020  1
 4512  3020  3191  1
 4513  3020  3022  1
 4514  3021  3023  1
 4515  3021  3022  1
 4516  3022  3193  1
 4517  3023  3024  1
 4518  3024  3195  1
 4519  3024  3026  1
 4520  3025  3027  1
 4521  3025  3026  1
 4522  3026  3197  1
 4523  3027  3028  1
 4524  3028  3199  1
 4525  3028  3030  1
 4526  3029  3031  1
 4527  3029  3030  1
 4528  3030  3201  1
 4529  3031  3032  1
 4530  3032  3203  1
 4531  3032  3034  1
 4532  3033  3035  1
 4533  3033  3034  1
 4534  3034  3205  1
 4535  3035  3036  1
 4536  3036  3207  1
 4537  3036  3038  1
 4538  3037  3039  1
 4539  3037  3038  1
 4540  3038  3209  1
 4541  3039  3040  1
 4542  3040  3211  1
 4543  3040  3042  1
 4544  3041  3043  1
 4545  3041  3042  1
 4546  3042  3213  1
 4547  3043  3044  1
 4548  3044  3215  1
 4549  3044  3046  1
 4550  3045  3047  1
 4551  3045  3046  1
 4552  3046  3217  1
 4553  3047  3048  1
 4554  3048  3219  1
 4555  3048  3050  1
 4556  3049  3051  1
 4557  3049  3050  1
 4558  3050  3221  1
 4559  3051  3052  1
 4560  3052  3054  1
 4561  3052  3223  1
 4562  3053  3055  1
 4563  3053  3054  1
 4564  3054  3225  1
 4565  3055  3056  1
 4566  3056  3058  1
 4567  3056  3227  1
 4568  3057  3059  1
 4569  3057  3058  1
 4570  3058  3229  1
 4571  3059  3060  1
 4572  3060  3062  1
 4573  3060  3231  1
 4574  3061  3063  1
 4575  3061  3062  1
 4576  3062  3233  1
 4577  3063  3064  1
 4578  3064  3066  1
 4579  3064  3235  1
 4580  3065  3067  1
 4581  3065  3066  1
 4582  3066  3237  1
 4583  3067  3068  1
 4584  3068  3239  1
 4585  3068  3070  1
 4586  3069  3071  1
 4587  3069  3070  1
 4588  3070  3241  1
 4589  3071  3072  1
 4590  3072  3243  1
 4591  3072  3074  1
 4592  3073  3075  1
 4593  3073  3074  1
 4594  3074  3245  1
 4595  3075  3076  1
 4596  3076  3247  1
 4597  3076  3078  1
 4598  3077  3079  1
 4599  3077  3078  1
 4600  3078  3249  1
 4601  3079  3080  1
 4602  3080  3251  1
 4603  3080  3082  1
 4604  3081  3083  1
 4605  3081  3082  1
 4606  3082  3253  1
 4607  3083  3084  1
 4608  3084  3255  1
 4609  3084  3086  1
 4610  3085  3087  1
 4611  3085  3086  1
 4612  3086  3257  1
 4613  3087  3088  1
 4614  3088  3259  1
 4615  3088  3090  1
 4616  3089  3091  1
 4617  3089  3090  1
 4618  3090  3261  1
 4619  3091  3092  1
 4620  3092  3263  1
 4621  3092  3094  1
 4622  3093  3095  1
 4623  3093  3094  1
 4624  3094  3265  1
 4625  3095  3096  1
 4626  3096  3267  1
 4627  3097  3099  1
 4628  3097  3098  1
 4629  3098  3269  1
 4630  3099  3100  1
 4631  3100  3271  1
 4632  3100  3102  1
 4633  3101  3103  1
 4634  3101  3102  1
 4635  3102  3273  1
 4636  3103  3104  1
 4637  3104  3275  1
 4638  3104  3106  1
 4639  3105  3107  1
 4640  3105  3106  1
 4641  3106  3277  1
 4642  3107  3108  1
 4643  3108  3279  1
 4644  3108  3110  1
 4645  3109  3111  1
 4646  3109  3110  1
 4647  3110  3281  1
 4648  3111  3112  1
 4649  3112  3283  1
 4650  3112  3114  1
 4651  3113  3115  1
 4652  3113  3114  1
 4653  3114  3285  1
 4654  3115  3116  1
 4655  3116  3287  1
 4656  3116  3118  1
 4657  3117  3119  1
 4658  3117  3118  1
 4659  3118  3289  1
 4660  3119  3120  1
 4661  3120  3291  1
 4662  3120  3122  1
 4663  3121  3123  1
 4664  3121  3122  1
 4665  3122  3293  1
 4666  3123  3124  1
 4667  3124  3295  1
 4668  3124  3126  1
 4669  3125  3127  1
 4670  3125  3126  1
 4671  3126  3297  1
 4672  3127  3128  1
 4673  3128  3299  1
 4674  3128  3130  1
 4675  3129  3131  1
 4676  3129  3130  1
 4677  3130  3301  1
 4678  3131  3132  1
 4679  3132  3303  1
 4680  3132  3134  1
 4681  3133  3135  1
 4682  3133  3134  1
 4683  3134  3305  1
 4684  3135  3136  1
 4685  3136  3138  1
 4686  3136  3307  1
 4687  3137  3139  1
 4688  3137  3138  1
 4689  3138  3309  1
 4690  3139  3140  1
 4691  3140  3142  1
 4692  3140  3311  1
 4693  3141  3143  1
 4694  3141  3142  1
 4695  3142  3313  1
 4696  3143  3144  1
 4697  3144  3146  1
 4698  3144  3315  1
 4699  3145  3147  1
 4700  3145  3146  1
 4701  3146  3317  1
 4702  3147  3148  1
 4703  3148  3319  1
 4704  3148  3150  1
 4705  3149  3151  1
 4706  3149  3150  1
 4707  3150  3321  1
 4708  3151  3152  1
 4709  3152  3323  1
 4710  3152  3154  1
 4711  3153  3155  1
 4712  3153  3154  1
 4713  3154  3325  1
 4714  3155  3156  1
 4715  3156  3327  1
 4716  3156  3158  1
 4717  3157  3159  1
 4718  3157  3158  1
 4719  3158  3329  1
 4720  3159  3160  1
 4721  3160  3331  1
 4722  3160  3162  1
 4723  3161  3163  1
 4724  3161  3162  1
 4725  3162  3333  1
 4726  3163  3164  1
 4727  3164  3335  1
 4728  3164  3166  1
 4729  3165  3167  1
 4730  3165  3166  1
 4731  3166  3337  1
 4732  3167  3168  1
 4733  3168  3339  1
 4734  3168  3170  1
 4735  3169  3171  1
 4736  3169  3170  1
 4737  3170  3341  1
 4738  3171  3172  1
 4739  3172  3343  1
 4740  3172  3174  1
 4741  3173  3175  1
 4742  3173  3174  1
 4743  3174  3345  1
 4744  3175  3176  1
 4745  3176  3178  1
 4746  3176  3347  1
 4747  3177  3179  1
 4748  3177  3178  1
 4749  3178  3349  1
 4750  3179  3180  1
 4751  3180  3182  1
 4752  3180  3351  1
 4753  3181  3183  1
 4754  3181  3182  1
 4755  3182  3353  1
 4756  3183  3184  1
 4757  3184  3186  1
 4758  3184  3355  1
 4759  3185  3187  1
 4760  3185  3186  1
 4761  3186  3357  1
 4762  3187  3188  1
 4763  3188  3190  1
 4764  3188  3359  1
 4765  3189  3191  1
 4766  3189  3190  1
 4767  3190  3361  1
 4768  3191  3192  1
 4769  3192  3363  1
 4770  3192  3194  1
 4771  3193  3195  1
 4772  3193  3194  1
 4773  3194  3365  1
 4774  3195  3196  1
 4775  3196  3367  1
 4776  3196  3198  1
 4777  3197  3199  1
 4778  3197  3198  1
 4779  3198  3369  1
 4780  3199  3200  1
 4781  3200  3371  1
 4782  3200  3202  1
 4783  3201  3203  1
 4784  3201  3202  1
 4785  3202  3373  1
 4786  3203  3204  1
 4787  3204  3375  1
 4788  3204  3206  1
 4789  3205  3207  1
 4790  3205  3206  1
 4791  3206  3377  1
 4792  3207  3208  1
 4793  3208  3379  1
 4794  3208  3210  1
 4795  3209  3211  1
 4796  3209  3210  1
 4797  3210  3381  1
 4798  3211  3212  1
 4799  3212  3383  1
 4800  3212  3214  1
 4801  3213  3215  1
 4802  3213  3214  1
 4803  3214  3385  1
 4804  3215  3216  1
 4805  3216  3387  1
 4806  3216  3218  1
 4807  3217  3219  1
 4808  3217  3218  1
 4809  3218  3389  1
 4810  3219  3220  1
 4811  3220  3391  1
 4812  3220  3222  1
 4813  3221  3223  1
 4814  3221  3222  1
 4815  3222  3393  1
 4816  3223  3224  1
 4817  3224  3395  1
 4818  3224  3226  1
 4819  3225  3227  1
 4820  3225  3226  1
 4821  3226  3397  1
 4822  3227  3228  1
 4823  3228  3230  1
 4824  3228  3399  1
 4825  3229  3231  1
 4826  3229  3230  1
 4827  3230  3401  1
 4828  3231  3232  1
 4829  3232  3234  1
 4830  3232  3403  1
 4831  3233  3235  1
 4832  3233  3234  1
 4833  3234  3405  1
 4834  3235  3236  1
 4835  3236  3238  1
 4836  3236  3407  1
 4837  3237  3239  1
 4838  3237  3238  1
 4839  3238  3409  1
 4840  3239  3240  1
 4841  3240  3411  1
 4842  3240  3242  1
 4843  3241  3243  1
 4844  3241  3242  1
 4845  3242  3413  1
 4846  3243  3244  1
 4847  3244  3415  1
 4848  3244  3246  1
 4849  3245  3247  1
 4850  3245  3246  1
 4851  3246  3417  1
 4852  3247  3248  1
 4853  3248  3419  1
 4854  3248  3250  1
 4855  3249  3251  1
 4856  3249  3250  1
 4857  3250  3421  1
 4858  3251  3252  1
 4859  3252  3423  1
 4860  3252  3254  1
 4861  3253  3255  1
 4862  3253  3254  1
 4863  3254  3425  1
 4864  3255  3256  1
 4865  3256  3427  1
 4866  3256  3258  1
 4867  3257  3259  1
 4868  3257  3258  1
 4869  3258  3429  1
 4870  3259  3260  1
 4871  3260  3431  1
 4872  3260  3262  1
 4873  3261  3263  1
 4874  3261  3262  1
 4875  3262  3433  1
 4876  3263  3264  1
 4877  3264  3435  1
 4878  3264  3266  1
 4879  3265  3267  1
 4880  3265  3266  1
 4881  3266  3437  1
 4882  3267  3268  1
 4883  3268  3439  1
 4884  3269  3271  1
 4885  3269  3270  1
 4886  3270  3441  1
 4887  3271  3272  1
 4888  3272  3274  1
 4889  3272  3443  1
 4890  3273  3275  1
 4891  3273  3274  1
 4892  3274  3445  1
 4893  3275  3276  1
 4894  3276  3278  1
 4895  3276  3447  1
 4896  3277  3279  1
 4897  3277  3278  1
 4898  3278  3449  1
 4899  3279  3280  1
 4900  3280  3282  1
 4901  3280  3451  1
 4902  3281  3283  1
 4903  3281  3282  1
 4904  3282  3453  1
 4905  3283  3284  1
 4906  3284  3286  1
 4907  3284  3455  1
 4908  3285  3287  1
 4909  3285  3286  1
 4910  3286  3457  1
 4911  3287  3288  1
 4912  3288  3290  1
 4913  3288  3459  1
 4914  3289  3291  1
 4915  3289  3290  1
 4916  3290  3461  1
 4917  3291  3292  1
 4918  3292  3294  1
 4919  3292  3463  1
 4920  3293  3295  1
 4921  3293  3294  1
 4922  3294  3465  1
 4923  3295  3296  1
 4924  3296  3298  1
 4925  3296  3467  1
 4926  3297  3299  1
 4927  3297  3298  1
 4928  3298  3469  1
 4929  3299  3300  1
 4930  3300  3302  1
 4931  3300  3471  1
 4932  3301  3303  1
 4933  3301  3302  1
 4934  3302  3473  1
 4935  3303  3304  1
 4936  3304  3306  1
 4937  3304  3475  1
 4938  3305  3307  1
 4939  3305  3306  1
 4940  3306  3477  1
 4941  3307  3308  1
 4942  3308  3310  1
 4943  3308  3479  1
 4944  3309  3311  1
 4945  3309  3310  1
 4946  3310  3481  1
 4947  3311  3312  1
 4948  3312  3314  1
 4949  3312  3483  1
 4950  3313  3315  1
 4951  3313  3314  1
 4952  3314  3485  1
 4953  3315  3316  1
 4954  3316  3318  1
 4955  3316  3487  1
 4956  3317  3319  1
 4957  3317  3318  1
 4958  3318  3489  1
 4959  3319  3320  1
 4960  3320  3322  1
 4961  3320  3491  1
 4962  3321  3323  1
 4963  3321  3322  1
 4964  3322  3493  1
 4965  3323  3324  1
 4966  3324  3326  1
 4967  3324  3495  1
 4968  3325  3327  1
 4969  3325  3326  1
 4970  3326  3497  1
 4971  3327  3328  1
 4972  3328  3330  1
 4973  3328  3499  1
 4974  3329  3331  1
 4975  3329  3330  1
 4976  3330  3501  1
 4977  3331  3332  1
 4978  3332  3334  1
 4979  3332  3503  1
 4980  3333  3335  1
 4981  3333  3334  1
 4982  3334  3505  1
 4983  3335  3336  1
 4984  3336  3338  1
 4985  3336  3507  1
 4986  3337  3339  1
 4987  3337  3338  1
 4988  3338  3509  1
 4989  3339  3340  1
 4990  3340  3342  1
 4991  3340  3511  1
 4992  3341  3343  1
 4993  3341  3342  1
 4994  3342  3513  1
 4995  3343  3344  1
 4996  3344  3346  1
 4997  3344  3515  1
 4998  3345  3347  1
 4999  3345  3346  1
 5000  3346  3517  1
 5001  3347  3348  1
 5002  3348  3350  1
 5003  3348  3519  1
 5004  3349  3351  1
 5005  3349  3350  1
 5006  3350  3521  1
 5007  3351  3352  1
 5008  3352  3354  1
 5009  3352  3523  1
 5010  3353  3355  1
 5011  3353  3354  1
 5012  3354  3525  1
 5013  3355  3356  1
 5014  3356  3358  1
 5015  3356  3527  1
 5016  3357  3359  1
 5017  3357  3358  1
 5018  3358  3529  1
 5019  3359  3360  1
 5020  3360  3362  1
 5021  3360  3531  1
 5022  3361  3363  1
 5023  3361  3362  1
 5024  3362  3533  1
 5025  3363  3364  1
 5026  3364  3366  1
 5027  3364  3535  1
 5028  3365  3367  1
 5029  3365  3366  1
 5030  3366  3537  1
 5031  3367  3368  1
 5032  3368  3370  1
 5033  3368  3539  1
 5034  3369  3371  1
 5035  3369  3370  1
 5036  3370  3541  1
 5037  3371  3372  1
 5038  3372  3374  1
 5039  3372  3543  1
 5040  3373  3375  1
 5041  3373  3374  1
 5042  3374  3545  1
 5043  3375  3376  1
 5044  3376  3378  1
 5045  3376  3547  1
 5046  3377  3379  1
 5047  3377  3378  1
 5048  3378  3549  1
 5049  3379  3380  1
 5050  3380  3382  1
 5051  3380  3551  1
 5052  3381  3383  1
 5053  3381  3382  1
 5054  3382  3553  1
 5055  3383  3384  1
 5056  3384  3386  1
 5057  3384  3555  1
 5058  3385  3387  1
 5059  3385  3386  1
 5060  3386  3557  1
 5061  3387  3388  1
 5062  3388  3390  1
 5063  3388  3559  1
 5064  3389  3391  1
 5065  3389  3390  1
 5066  3390  3561  1
 5067  3391  3392  1
 5068  3392  3394  1
 5069  3392  3563  1
 5070  3393  3395  1
 5071  3393  3394  1
 5072  3394  3565  1
 5073  3395  3396  1
 5074  3396  3398  1
 5075  3396  3567  1
 5076  3397  3399  1
 5077  3397  3398  1
 5078  3398  3569  1
 5079  3399  3400  1
 5080  3400  3402  1
 5081  3400  3571  1
 5082  3401  3403  1
 5083  3401  3402  1
 5084  3402  3573  1
 5085  3403  3404  1
 5086  3404  3406  1
 5087  3404  3575  1
 5088  3405  3407  1
 5089  3405  3406  1
 5090  3406  3577  1
 5091  3407  3408  1
 5092  3408  3410  1
 5093  3408  3579  1
 5094  3409  3411  1
 5095  3409  3410  1
 5096  3410  3581  1
 5097  3411  3412  1
 5098  3412  3414  1
 5099  3412  3583  1
 5100  3413  3415  1
 5101  3413  3414  1
 5102  3414  3585  1
 5103  3415  3416  1
 5104  3416  3418  1
 5105  3416  3587  1
 5106  3417  3419  1
 5107  3417  3418  1
 5108  3418  3589  1
 5109  3419  3420  1
 5110  3420  3422  1
 5111  3420  3591  1
 5112  3421  3423  1
 5113  3421  3422  1
 5114  3422  3593  1
 5115  3423  3424  1
 5116  3424  3426  1
 5117  3424  3595  1
 5118  3425  3427  1
 5119  3425  3426  1
 5120  3426  3597  1
 5121  3427  3428  1
 5122  3428  3430  1
 5123  3428  3599  1
 5124  3429  3431  1
 5125  3429  3430  1
 5126  3430  3601  1
 5127  3431  3432  1
 5128  3432  3434  1
 5129  3432  3603  1
 5130  3433  3435  1
 5131  3433  3434  1
 5132  3434  3605  1
 5133  3435  3436  1
 5134  3436  3438  1
 5135  3436  3607  1
 5136  3437  3439  1
 5137  3437  3438  1
 5138  3438  3609  1
 5139  3439  3440  1
 5140  3440  3611  1
 5141  3441  3442  1
 5142  3441  3443  1
 5143  3442  3613  1
 5144  3443  3444  1
 5145  3444  3446  1
 5146  3444  3615  1
 5147  3445  3446  1
 5148  3445  3447  1
 5149  3446  3617  1
 5150  3447  3448  1
 5151  3448  3450  1
 5152  3448  3619  1
 5153  3449  3450  1
 5154  3449  3451  1
 5155  3450  3621  1
 5156  3451  3452  1
 5157  3452  3454  1
 5158  3452  3623  1
 5159  3453  3454  1
 5160  3453  3455  1
 5161  3454  3625  1
 5162  3455  3456  1
 5163  3456  3458  1
 5164  3456  3627  1
 5165  3457  3458  1
 5166  3457  3459  1
 5167  3458  3629  1
 5168  3459  3460  1
 5169  3460  3462  1
 5170  3460  3631  1
 5171  3461  3462  1
 5172  3461  3463  1
 5173  3462  3633  1
 5174  3463  3464  1
 5175  3464  3466  1
 5176  3464  3635  1
 5177  3465  3466  1
 5178  3465  3467  1
 5179  3466  3637  1
 5180  3467  3468  1
 5181  3468  3470  1
 5182  3468  3639  1
 5183  3469  3470  1
 5184  3469  3471  1
 5185  3470  3641  1
 5186  3471  3472  1
 5187  3472  3474  1
 5188  3472  3643  1
 5189  3473  3475  1
 5190  3473  3474  1
 5191  3474  3645  1
 5192  3475  3476  1
 5193  3476  3478  1
 5194  3476  3647  1
 5195  3477  3479  1
 5196  3477  3478  1
 5197  3478  3649  1
 5198  3479  3480  1
 5199  3480  3482  1
 5200  3480  3651  1
 5201  3481  3483  1
 5202  3481  3482  1
 5203  3482  3653  1
 5204  3483  3484  1
 5205  3484  3486  1
 5206  3484  3655  1
 5207  3485  3487  1
 5208  3485  3486  1
 5209  3486  3657  1
 5210  3487  3488  1
 5211  3488  3490  1
 5212  3488  3659  1
 5213  3489  3490  1
 5214  3489  3491  1
 5215  3490  3661  1
 5216  3491  3492  1
 5217  3492  3494  1
 5218  3492  3663  1
 5219  3493  3494  1
 5220  3493  3495  1
 5221  3494  3665  1
 5222  3495  3496  1
 5223  3496  3498  1
 5224  3496  3667  1
 5225  3497  3498  1
 5226  3497  3499  1
 5227  3498  3669  1
 5228  3499  3500  1
 5229  3500  3502  1
 5230  3500  3671  1
 5231  3501  3502  1
 5232  3501  3503  1
 5233  3502  3673  1
 5234  3503  3504  1
 5235  3504  3506  1
 5236  3504  3675  1
 5237  3505  3506  1
 5238  3505  3507  1
 5239  3506  3677  1
 5240  3507  3508  1
 5241  3508  3510  1
 5242  3508  3679  1
 5243  3509  3510  1
 5244  3509  3511  1
 5245  3510  3681  1
 5246  3511  3512  1
 5247  3512  3514  1
 5248  3512  3683  1
 5249  3513  3514  1
 5250  3513  3515  1
 5251  3514  3685  1
 5252  3515  3516  1
 5253  3516  3518  1
 5254  3516  3687  1
 5255  3517  3518  1
 5256  3517  3519  1
 5257  3518  3689  1
 5258  3519  3520  1
 5259  3520  3522  1
 5260  3520  3691  1
 5261  3521  3523  1
 5262  3521  3522  1
 5263  3522  3693  1
 5264  3523  3524  1
 5265  3524  3526  1
 5266  3524  3695  1
 5267  3525  3527  1
 5268  3525  3526  1
 5269  3526  3697  1
 5270  3527  3528  1
 5271  3528  3530  1
 5272  3528  3699  1
 5273  3529  3531  1
 5274  3529  3530  1
 5275  3530  3701  1
 5276  3531  3532  1
 5277  3532  3534  1
 5278  3532  3703  1
 5279  3533  3534  1
 5280  3533  3535  1
 5281  3534  3705  1
 5282  3535  3536  1
 5283  3536  3538  1
 5284  3536  3707  1
 5285  3537  3538  1
 5286  3537  3539  1
 5287  3538  3709  1
 5288  3539  3540  1
 5289  3540  3542  1
 5290  3540  3711  1
 5291  3541  3542  1
 5292  3541  3543  1
 5293  3542  3713  1
 5294  3543  3544  1
 5295  3544  3546  1
 5296  3544  3715  1
 5297  3545  3546  1
 5298  3545  3547  1
 5299  3546  3717  1
 5300  3547  3548  1
 5301  3548  3550  1
 5302  3548  3719  1
 5303  3549  3550  1
 5304  3549  3551  1
 5305  3550  3721  1
 5306  3551  3552  1
 5307  3552  3554  1
 5308  3552  3723  1
 5309  3553  3554  1
 5310  3553  3555  1
 5311  3554  3725  1
 5312  3555  3556  1
 5313  3556  3558  1
 5314  3556  3727  1
 5315  3557  3558  1
 5316  3557  3559  1
 5317  3558  3729  1
 5318  3559  3560  1
 5319  3560  3562  1
 5320  3560  3731  1
 5321  3561  3562  1
 5322  3561  3563  1
 5323  3562  3733  1
 5324  3563  3564  1
 5325  3564  3566  1
 5326  3564  3735  1
 5327  3565  3566  1
 5328  3565  3567  1
 5329  3566  3737  1
 5330  3567  3568  1
 5331  3568  3570  1
 5332  3568  3739  1
 5333  3569  3571  1
 5334  3569  3570  1
 5335  3570  3741  1
 5336  3571  3572  1
 5337  3572  3574  1
 5338  3572  3743  1
 5339  3573  3575  1
 5340  3573  3574  1
 5341  3574  3745  1
 5342  3575  3576  1
 5343  3576  3578  1
 5344  3576  3747  1
 5345  3577  3579  1
 5346  3577  3578  1
 5347  3578  3749  1
 5348  3579  3580  1
 5349  3580  3582  1
 5350  3580  3751  1
 5351  3581  3583  1
 5352  3581  3582  1
 5353  3582  3753  1
 5354  3583  3584  1
 5355  3584  3586  1
 5356  3584  3755  1
 5357  3585  3586  1
 5358  3585  3587  1
 5359  3586  3757  1
 5360  3587  3588  1
 5361  3588  3590  1
 5362  3588  3759  1
 5363  3589  3590  1
 5364  3589  3591  1
 5365  3590  3761  1
 5366  3591  3592  1
 5367  3592  3594  1
 5368  3592  3763  1
 5369  3593  3594  1
 5370  3593  3595  1
 5371  3594  3765  1
 5372  3595  3596  1
 5373  3596  3598  1
 5374  3596  3767  1
 5375  3597  3598  1
 5376  3597  3599  1
 5377  3598  3769  1
 5378  3599  3600  1
 5379  3600  3602  1
 5380  3600  3771  1
 5381  3601  3602  1
 5382  3601  3603  1
 5383  3602  3773  1
 5384  3603  3604  1
 5385  3604  3606  1
 5386  3604  3775  1
 5387  3605  3606  1
 5388  3605  3607  1
 5389  3606  3777  1
 5390  3607  3608  1
 5391  3608  3610  1
 5392  3608  3779  1
 5393  3609  3610  1
 5394  3609  3611  1
 5395  3610  3781  1
 5396  3611  3612  1
 5397  3612  3783  1
 5398  3613  3614  1
 5399  3613  3615  1
 5400  3614  3785  1
 5401  3615  3616  1
 5402  3616  3618  1
 5403  3616  3787  1
 5404  3617  3618  1
 5405  3617  3619  1
 5406  3618  3789  1
 5407  3619  3620  1
 5408  3620  3622  1
 5409  3620  3791  1
 5410  3621  3622  1
 5411  3621  3623  1
 5412  3622  3793  1
 5413  3623  3624  1
 5414  3624  3626  1
 5415  3624  3795  1
 5416  3625  3626  1
 5417  3625  3627  1
 5418  3626  3797  1
 5419  3627  3628  1
 5420  3628  3630  1
 5421  3628  3799  1
 5422  3629  3630  1
 5423  3629  3631  1
 5424  3630  3801  1
 5425  3631  3632  1
 5426  3632  3634  1
 5427  3632  3803  1
 5428  3633  3634  1
 5429  3633  3635  1
 5430  3634  3805  1
 5431  3635  3636  1
 5432  3636  3638  1
 5433  3636  3807  1
 5434  3637  3638  1
 5435  3637  3639  1
 5436  3638  3809  1
 5437  3639  3640  1
 5438  3640  3642  1
 5439  3640  3811  1
 5440  3641  3642  1
 5441  3641  3643  1
 5442  3642  3813  1
 5443  3643  3644  1
 5444  3644  3646  1
 5445  3644  3815  1
 5446  3645  3647  1
 5447  3645  3646  1
 5448  3646  3817  1
 5449  3647  3648  1
 5450  3648  3650  1
 5451  3648  3819  1
 5452  3649  3651  1
 5453  3649  3650  1
 5454  3650  3821  1
 5455  3651  3652  1
 5456  3652  3654  1
 5457  3652  3823  1
 5458  3653  3655  1
 5459  3653  3654  1
 5460  3654  3825  1
 5461  3655  3656  1
 5462  3656  3658  1
 5463  3656  3827  1
 5464  3657  3658  1
 5465  3657  3659  1
 5466  3658  3829  1
 5467  3659  3660  1
 5468  3660  3662  1
 5469  3660  3831  1
 5470  3661  3662  1
 5471  3661  3663  1
 5472  3662  3833  1
 5473  3663  3664  1
 5474  3664  3666  1
 5475  3664  3835  1
 5476  3665  3666  1
 5477  3665  3667  1
 5478  3666  3837  1
 5479  3667  3668  1
 5480  3668  3670  1
 5481  3668  3839  1
 5482  3669  3670  1
 5483  3669  3671  1
 5484  3670  3841  1
 5485  3671  3672  1
 5486  3672  3674  1
 5487  3672  3843  1
 5488  3673  3674  1
 5489  3673  3675  1
 5490  3674  3845  1
 5491  3675  3676  1
 5492  3676  3678  1
 5493  3676  3847  1
 5494  3677  3678  1
 5495  3677  3679  1
 5496  3678  3849  1
 5497  3679  3680  1
 5498  3680  3682  1
 5499  3680  3851  1
 5500  3681  3682  1
 5501  3681  3683  1
 5502  3682  3853  1
 5503  3683  3684  1
 5504  3684  3686  1
 5505  3684  3855  1
 5506  3685  3686  1
 5507  3685  3687  1
 5508  3686  3857  1
 5509  3687  3688  1
 5510  3688  3690  1
 5511  3688  3859  1
 5512  3689  3690  1
 5513  3689  3691  1
 5514  3690  3861  1
 5515  3691  3692  1
 5516  3692  3694  1
 5517  3692  3863  1
 5518  3693  3695  1
 5519  3693  3694  1
 5520  3694  3865  1
 5521  3695  3696  1
 5522  3696  3698  1
 5523  3696  3867  1
 5524  3697  3699  1
 5525  3697  3698  1
 5526  3698  3869  1
 5527  3699  3700  1
 5528  3700  3702  1
 5529  3700  3871  1
 5530  3701  3703  1
 5531  3701  3702  1
 5532  3702  3873  1
 5533  3703  3704  1
 5534  3704  3706  1
 5535  3704  3875  1
 5536  3705  3707  1
 5537  3705  3706  1
 5538  3706  3877  1
 5539  3707  3708  1
 5540  3708  3710  1
 5541  3708  3879  1
 5542  3709  3710  1
 5543  3709  3711  1
 5544  3710  3881  1
 5545  3711  3712  1
 5546  3712  3714  1
 5547  3712  3883  1
 5548  3713  3714  1
 5549  3713  3715  1
 5550  3714  3885  1
 5551  3715  3716  1
 5552  3716  3718  1
 5553  3716  3887  1
 5554  3717  3718  1
 5555  3717  3719  1
 5556  3718  3889  1
 5557  3719  3720  1
 5558  3720  3722  1
 5559  3720  3891  1
 5560  3721  3722  1
 5561  3721  3723  1
 5562  3722  3893  1
 5563  3723  3724  1
 5564  3724  3726  1
 5565  3724  3895  1
 5566  3725  3726  1
 5567  3725  3727  1
 5568  3726  3897  1
 5569  3727  3728  1
 5570  3728  3730  1
 5571  3728  3899  1
 5572  3729  3730  1
 5573  3729  3731  1
 5574  3730  3901  1
 5575  3731  3732  1
 5576  3732  3734  1
 5577  3732  3903  1
 5578  3733  3734  1
 5579  3733  3735  1
 5580  3734  3905  1
 5581  3735  3736  1
 5582  3736  3738  1
 5583  3736  3907  1
 5584  3737  3738  1
 5585  3737  3739  1
 5586  3738  3909  1
 5587  3739  3740  1
 5588  3740  3742  1
 5589  3740  3911  1
 5590  3741  3743  1
 5591  3741  3742  1
 5592  3742  3913  1
 5593  3743  3744  1
 5594  3744  3746  1
 5595  3744  3915  1
 5596  3745  3747  1
 5597  3745  3746  1
 5598  3746  3917  1
 5599  3747  3748  1
 5600  3748  3750  1
 5601  3748  3919  1
 5602  3749  3750  1
 5603  3749  3751  1
 5604  3750  3921  1
 5605  3751  3752  1
 5606  3752  3754  1
 5607  3752  3923  1
 5608  3753  3755  1
 5609  3753  3754  1
 5610  3754  3925  1
 5611  3755  3756  1
 5612  3756  3758  1
 5613  3756  3927  1
 5614  3757  3758  1
 5615  3757  3759  1
 5616  3758  3929  1
 5617  3759  3760  1
 5618  3760  3762  1
 5619  3760  3931  1
 5620  3761  3762  1
 5621  3761  3763  1
 5622  3762  3933  1
 5623  3763  3764  1
 5624  3764  3766  1
 5625  3764  3935  1
 5626  3765  3766  1
 5627  3765  3767  1
 5628  3766  3937  1
 5629  3767  3768  1
 5630  3768  3770  1
 5631  3768  3939  1
 5632  3769  3770  1
 5633  3769  3771  1
 5634  3770  3941  1
 5635  3771  3772  1
 5636  3772  3774  1
 5637  3772  3943  1
 5638  3773  3774  1
 5639  3773  3775  1
 5640  3774  3945  1
 5641  3775  3776  1
 5642  3776  3778  1
 5643  3776  3947  1
 5644  3777  3778  1
 5645  3777  3779  1
 5646  3778  3949  1
 5647  3779  3780  1
 5648  3780  3782  1
 5649  3780  3951  1
 5650  3781  3782  1
 5651  3781  3783  1
 5652  3782  3953  1
 5653  3783  3784  1
 5654  3784  3955  1
 5655  3785  3787  1
 5656  3785  3786  1
 5657  3786  3957  1
 5658  3787  3788  1
 5659  3788  3959  1
 5660  3788  3790  1
 5661  3789  3791  1
 5662  3789  3790  1
 5663  3790  3961  1
 5664  3791  3792  1
 5665  3792  3963  1
 5666  3792  3794  1
 5667  3793  3795  1
 5668  3793  3794  1
 5669  3794  3965  1
 5670  3795  3796  1
 5671  3796  3967  1
 5672  3796  3798  1
 5673  3797  3799  1
 5674  3797  3798  1
 5675  3798  3969  1
 5676  3799  3800  1
 5677  3800  3971  1
 5678  3800  3802  1
 5679  3801  3803  1
 5680  3801  3802  1
 5681  3802  3973  1
 5682  3803  3804  1
 5683  3804  3975  1
 5684  3804  3806  1
 5685  3805  3807  1
 5686  3805  3806  1
 5687  3806  3977  1
 5688  3807  3808  1
 5689  3808  3979  1
 5690  3808  3810  1
 5691  3809  3811  1
 5692  3809  3810  1
 5693  3810  3981  1
 5694  3811  3812  1
 5695  3812  3983  1
 5696  3812  3814  1
 5697  3813  3815  1
 5698  3813  3814  1
 5699  3814  3985  1
 5700  3815  3816  1
 5701  3816  3987  1
 5702  3816  3818  1
 5703  3817  3819  1
 5704  3817  3818  1
 5705  3818  3989  1
 5706  3819  3820  1
 5707  3820  3822  1
 5708  3820  3991  1
 5709  3821  3823  1
 5710  3821  3822  1
 5711  3822  3993  1
 5712  3823  3824  1
 5713  3824  3826  1
 5714  3824  3995  1
 5715  3825  3827  1
 5716  3825  3826  1
 5717  3826  3997  1
 5718  3827  3828  1
 5719  3828  3830  1
 5720  3828  3999  1
 5721  3829  3831  1
 5722  3829  3830  1
 5723  3830  4001  1
 5724  3831  3832  1
 5725  3832  3834  1
 5726  3832  4003  1
 5727  3833  3835  1
 5728  3833  3834  1
 5729  3834  4005  1
 5730  3835  3836  1
 5731  3836  4007  1
 5732  3836  3838  1
 5733  3837  3839  1
 5734  3837  3838  1
 5735  3838  4009  1
 5736  3839  3840  1
 5737  3840  4011  1
 5738  3840  3842  1
 5739  3841  3843  1
 5740  3841  3842  1
 5741  3842  4013  1
 5742  3843  3844  1
 5743  3844  4015  1
 5744  3844  3846  1
 5745  3845  3847  1
 5746  3845  3846  1
 5747  3846  4017  1
 5748  3847  3848  1
 5749  3848  4019  1
 5750  3848  3850  1
 5751  3849  3851  1
 5752  3849  3850  1
 5753  3850  4021  1
 5754  3851  3852  1
 5755  3852  4023  1
 5756  3852  3854  1
 5757  3853  3855  1
 5758  3853  3854  1
 5759  3854  4025  1
 5760  3855  3856  1
 5761  3856  4027  1
 5762  3856  3858  1
 5763  3857  3859  1
 5764  3857  3858  1
 5765  3858  4029  1
 5766  3859  3860  1
 5767  3860  4031  1
 5768  3860  3862  1
 5769  3861  3863  1
 5770  3861  3862  1
 5771  3862  4033  1
 5772  3863  3864  1
 5773  3864  3866  1
 5774  3864  4035  1
 5775  3865  3867  1
 5776  3865  3866  1
 5777  3866  4037  1
 5778  3867  3868  1
 5779  3868  3870  1
 5780  3868  4039  1
 5781  3869  3871  1
 5782  3869  3870  1
 5783  3870  4041  1
 5784  3871  3872  1
 5785  3872  4043  1
 5786  3872  3874  1
 5787  3873  3875  1
 5788  3873  3874  1
 5789  3874  4045  1
 5790  3875  3876  1
 5791  3876  3878  1
 5792  3876  4047  1
 5793  3877  3879  1
 5794  3877  3878  1
 5795  3878  4049  1
 5796  3879  3880  1
 5797  3880  4051  1
 5798  3880  3882  1
 5799  3881  3883  1
 5800  3881  3882  1
 5801  3882  4053  1
 5802  3883  3884  1
 5803  3884  4055  1
 5804  3884  3886  1
 5805  3885  3887  1
 5806  3885  3886  1
 5807  3886  4057  1
 5808  3887  3888  1
 5809  3888  4059  1
 5810  3888  3890  1
 5811  3889  3891  1
 5812  3889  3890  1
 5813  3890  4061  1
 5814  3891  3892  1
 5815  3892  4063  1
 5816  3892  3894  1
 5817  3893  3895  1
 5818  3893  3894  1
 5819  3894  4065  1
 5820  3895  3896  1
 5821  3896  4067  1
 5822  3896  3898  1
 5823  3897  3899  1
 5824  3897  3898  1
 5825  3898  4069  1
 5826  3899  3900  1
 5827  3900  4071  1
 5828  3900  3902  1
 5829  3901  3903  1
 5830  3901  3902  1
 5831  3902  4073  1
 5832  3903  3904  1
 5833  3904  4075  1
 5834  3904  3906  1
 5835  3905  3907  1
 5836  3905  3906  1
 5837  3906  4077  1
 5838  3907  3908  1
 5839  3908  4079  1
 5840  3908  3910  1
 5841  3909  3911  1
 5842  3909  3910  1
 5843  3910  4081  1
 5844  3911  3912  1
 5845  3912  3914  1
 5846  3912  4083  1
 5847  3913  3915  1
 5848  3913  3914  1
 5849  3914  4085  1
 5850  3915  3916  1
 5851  3916  3918  1
 5852  3916  4087  1
 5853  3917  3919  1
 5854  3917  3918  1
 5855  3918  4089  1
 5856  3919  3920  1
 5857  3920  3922  1
 5858  3920  4091  1
 5859  3921  3923  1
 5860  3921  3922  1
 5861  3922  4093  1
 5862  3923  3924  1
 5863  3924  3926  1
 5864  3924  4095  1
 5865  3925  3927  1
 5866  3925  3926  1
 5867  3926  4097  1
 5868  3927  3928  1
 5869  3928  4099  1
 5870  3928  3930  1
 5871  3929  3931  1
 5872  3929  3930  1
 5873  3930  4101  1
 5874  3931  3932  1
 5875  3932  4103  1
 5876  3932  3934  1
 5877  3933  3935  1
 5878  3933  3934  1
 5879  3934  4105  1
 5880  3935  3936  1
 5881  3936  4107  1
 5882  3936  3938  1
 5883  3937  3939  1
 5884  3937  3938  1
 5885  3938  4109  1
 5886  3939  3940  1
 5887  3940  4111  1
 5888  3940  3942  1
 5889  3941  3943  1
 5890  3941  3942  1
 5891  3942  4113  1
 5892  3943  3944  1
 5893  3944  4115  1
 5894  3944  3946  1
 5895  3945  3947  1
 5896  3945  3946  1
 5897  3946  4117  1
 5898  3947  3948  1
 5899  3948  4119  1
 5900  3948  3950  1
 5901  3949  3951  1
 5902  3949  3950  1
 5903  3950  4121  1
 5904  3951  3952  1
 5905  3952  4123  1
 5906  3952  3954  1
 5907  3953  3955  1
 5908  3953  3954  1
 5909  3954  4125  1
 5910  3955  3956  1
 5911  3956  4127  1
 5912  3957  3959  1
 5913  3957  3958  1
 5914  3958  4129  1
 5915  3959  3960  1
 5916  3960  4131  1
 5917  3960  3962  1
 5918  3961  3963  1
 5919  3961  3962  1
 5920  3962  4133  1
 5921  3963  3964  1
 5922  3964  4135  1
 5923  3964  3966  1
 5924  3965  3967  1
 5925  3965  3966  1
 5926  3966  4137  1
 5927  3967  3968  1
 5928  3968  4139  1
 5929  3968  3970  1
 5930  3969  3971  1
 5931  3969  3970  1
 5932  3970  4141  1
 5933  3971  3972  1
 5934  3972  4143  1
 5935  3972  3974  1
 5936  3973  3975  1
 5937  3973  3974  1
 5938  3974  4145  1
 5939  3975  3976  1
 5940  3976  4147  1
 5941  3976  3978  1
 5942  3977  3979  1
 5943  3977  3978  1
 5944  3978  4149  1
 5945  3979  3980  1
 5946  3980  4151  1
 5947  3980  3982  1
 5948  3981  3983  1
 5949  3981  3982  1
 5950  3982  4153  1
 5951  3983  3984  1
 5952  3984  4155  1
 5953  3984  3986  1
 5954  3985  3987  1
 5955  3985  3986  1
 5956  3986  4157  1
 5957  3987  3988  1
 5958  3988  4159  1
 5959  3988  3990  1
 5960  3989  3991  1
 5961  3989  3990  1
 5962  3990  4161  1
 5963  3991  3992  1
 5964  3992  3994  1
 5965  3992  4163  1
 5966  3993  3995  1
 5967  3993  3994  1
 5968  3994  4165  1
 5969  3995  3996  1
 5970  3996  4167  1
 5971  3996  3998  1
 5972  3997  3999  1
 5973  3997  3998  1
 5974  3998  4169  1
 5975  3999  4000  1
 5976  4000  4002  1
 5977  4000  4171  1
 5978  4001  4003  1
 5979  4001  4002  1
 5980  4002  4173  1
 5981  4003  4004  1
 5982  4004  4006  1
 5983  4004  4175  1
 5984  4005  4007  1
 5985  4005  4006  1
 5986  4006  4177  1
 5987  4007  4008  1
 5988  4008  4179  1
 5989  4008  4010  1
 5990  4009  4011  1
 5991  4009  4010  1
 5992  4010  4181  1
 5993  4011  4012  1
 5994  4012  4183  1
 5995  4012  4014  1
 5996  4013  4015  1
 5997  4013  4014  1
 5998  4014  4185  1
 5999  4015  4016  1
 6000  4016  4187  1
 6001  4016  4018  1
 6002  4017  4019  1
 6003  4017  4018  1
 6004  4018  4189  1
 6005  4019  4020  1
 6006  4020  4191  1
 6007  4020  4022  1
 6008  4021  4023  1
 6009  4021  4022  1
 6010  4022  4193  1
 6011  4023  4024  1
 6012  4024  4195  1
 6013  4024  4026  1
 6014  4025  4027  1
 6015  4025  4026  1
 6016  4026  4197  1
 6017  4027  4028  1
 6018  4028  4199  1
 6019  4028  4030  1
 6020  4029  4031  1
 6021  4029  4030  1
 6022  4030  4201  1
 6023  4031  4032  1
 6024  4032  4203  1
 6025  4032  4034  1
 6026  4033  4035  1
 6027  4033  4034  1
 6028  4034  4205  1
 6029  4035  4036  1
 6030  4036  4038  1
 6031  4036  4207  1
 6032  4037  4039  1
 6033  4037  4038  1
 6034  4038  4209  1
 6035  4039  4040  1
 6036  4040  4042  1
 6037  4040  4211  1
 6038  4041  4043  1
 6039  4041  4042  1
 6040  4042  4213  1
 6041  4043  4044  1
 6042  4044  4046  1
 6043  4044  4215  1
 6044  4045  4047  1
 6045  4045  4046  1
 6046  4046  4217  1
 6047  4047  4048  1
 6048  4048  4050  1
 6049  4048  4219  1
 6050  4049  4051  1
 6051  4049  4050  1
 6052  4050  4221  1
 6053  4051  4052  1
 6054  4052  4223  1
 6055  4052  4054  1
 6056  4053  4055  1
 6057  4053  4054  1
 6058  4054  4225  1
 6059  4055  4056  1
 6060  4056  4227  1
 6061  4056  4058  1
 6062  4057  4059  1
 6063  4057  4058  1
 6064  4058  4229  1
 6065  4059  4060  1
 6066  4060  4231  1
 6067  4060  4062  1
 6068  4061  4063  1
 6069  4061  4062  1
 6070  4062  4233  1
 6071  4063  4064  1
 6072  4064  4235  1
 6073  4064  4066  1
 6074  4065  4067  1
 6075  4065  4066  1
 6076  4066  4237  1
 6077  4067  4068  1
 6078  4068  4239  1
 6079  4068  4070  1
 6080  4069  4071  1
 6081  4069  4070  1
 6082  4070  4241  1
 6083  4071  4072  1
 6084  4072  4243  1
 6085  4072  4074  1
 6086  4073  4075  1
 6087  4073  4074  1
 6088  4074  4245  1
 6089  4075  4076  1
 6090  4076  4247  1
 6091  4076  4078  1
 6092  4077  4079  1
 6093  4077  4078  1
 6094  4078  4249  1
 6095  4079  4080  1
 6096  4080  4251  1
 6097  4080  4082  1
 6098  4081  4083  1
 6099  4081  4082  1
 6100  4082  4253  1
 6101  4083  4084  1
 6102  4084  4086  1
 6103  4084  4255  1
 6104  4085  4087  1
 6105  4085  4086  1
 6106  4086  4257  1
 6107  4087  4088  1
 6108  4088  4259  1
 6109  4088  4090  1
 6110  4089  4091  1
 6111  4089  4090  1
 6112  4090  4261  1
 6113  4091  4092  1
 6114  4092  4094  1
 6115  4092  4263  1
 6116  4093  4095  1
 6117  4093  4094  1
 6118  4094  4265  1
 6119  4095  4096  1
 6120  4096  4098  1
 6121  4096  4267  1
 6122  4097  4099  1
 6123  4097  4098  1
 6124  4098  4269  1
 6125  4099  4100  1
 6126  4100  4271  1
 6127  4100  4102  1
 6128  4101  4103  1
 6129  4101  4102  1
 6130  4102  4273  1
 6131  4103  4104  1
 6132  4104  4275  1
 6133  4104  4106  1
 6134  4105  4107  1
 6135  4105  4106  1
 6136  4106  4277  1
 6137  4107  4108  1
 6138  4108  4279  1
 6139  4108  4110  1
 6140  4109  4111  1
 6141  4109  4110  1
 6142  4110  4281  1
 6143  4111  4112  1
 6144  4112  4283  1
 6145  4112  4114  1
 6146  4113  4115  1
 6147  4113  4114  1
 6148  4114  4285  1
 6149  4115  4116  1
 6150  4116  4287  1
 6151  4116  4118  1
 6152  4117  4119  1
 6153  4117  4118  1
 6154  4118  4289  1
 6155  4119  4120  1
 6156  4120  4291  1
 6157  4120  4122  1
 6158  4121  4123  1
 6159  4121  4122  1
 6160  4122  4293  1
 6161  4123  4124  1
 6162  4124  4295  1
 6163  4124  4126  1
 6164  4125  4127  1
 6165  4125  4126  1
 6166  4126  4297  1
 6167  4127  4128  1
 6168  4128  4299  1
 6169  4129  4131  1
 6170  4129  4130  1
 6171  4131  4132  1
 6172  4132  4134  1
 6173  4133  4135  1
 6174  4133  4134  1
 6175  4135  4136  1
 6176  4136  4138  1
 6177  4137  4139  1
 6178  4137  4138  1
 6179  4139  4140  1
 6180  4140  4142  1
 6181  4141  4143  1
 6182  4141  4142  1
 6183  4143  4144  1
 6184  4144  4146  1
 6185  4145  4147  1
 6186  4145  4146  1
 6187  4147  4148  1
 6188  4148  4150  1
 6189  4149  4151  1
 6190  4149  4150  1
 6191  4151  4152  1
 6192  4152  4154  1
 6193  4153  4155  1
 6194  4153  4154  1
 6195  4155  4156  1
 6196  4156  4158  1
 6197  4157  4159  1
 6198  4157  4158  1
 6199  4159  4160  1
 6200  4160  4162  1
 6201  4161  4163  1
 6202  4161  4162  1
 6203  4163  4164  1
 6204  4164  4166  1
 6205  4165  4167  1
 6206  4165  4166  1
 6207  4167  4168  1
 6208  4168  4170  1
 6209  4169  4171  1
 6210  4169  4170  1
 6211  4171  4172  1
 6212  4172  4174  1
 6213  4173  4175  1
 6214  4173  4174  1
 6215  4175  4176  1
 6216  4176  4178  1
 6217  4177  4179  1
 6218  4177  4178  1
 6219  4179  4180  1
 6220  4180  4182  1
 6221  4181  4183  1
 6222  4181  4182  1
 6223  4183  4184  1
 6224  4184  4186  1
 6225  4185  4187  1
 6226  4185  4186  1
 6227  4187  4188  1
 6228  4188  4190  1
 6229  4189  4191  1
 6230  4189  4190  1
 6231  4191  4192  1
 6232  4192  4194  1
 6233  4193  4195  1
 6234  4193  4194  1
 6235  4195  4196  1
 6236  4196  4198  1
 6237  4197  4199  1
 6238  4197  4198  1
 6239  4199  4200  1
 6240  4200  4202  1
 6241  4201  4203  1
 6242  4201  4202  1
 6243  4203  4204  1
 6244  4204  4206  1
 6245  4205  4207  1
 6246  4205  4206  1
 6247  4207  4208  1
 6248  4208  4210  1
 6249  4209  4211  1
 6250  4209  4210  1
 6251  4211  4212  1
 6252  4212  4214  1
 6253  4213  4215  1
 6254  4213  4214  1
 6255  4215  4216  1
 6256  4216  4218  1
 6257  4217  4219  1
 6258  4217  4218  1
 6259  4219  4220  1
 6260  4220  4222  1
 6261  4221  4223  1
 6262  4221  4222  1
 6263  4223  4224  1
 6264  4224  4226  1
 6265  4225  4227  1
 6266  4225  4226  1
 6267  4227  4228  1
 6268  4228  4230  1
 6269  4229  4231  1
 6270  4229  4230  1
 6271  4231  4232  1
 6272  4232  4234  1
 6273  4233  4235  1
 6274  4233  4234  1
 6275  4235  4236  1
 6276  4236  4238  1
 6277  4237  4239  1
 6278  4237  4238  1
 6279  4239  4240  1
 6280  4240  4242  1
 6281  4241  4243  1
 6282  4241  4242  1
 6283  4243  4244  1
 6284  4244  4246  1
 6285  4245  4247  1
 6286  4245  4246  1
 6287  4247  4248  1
 6288  4248  4250  1
 6289  4249  4251  1
 6290  4249  4250  1
 6291  4251  4252  1
 6292  4252  4254  1
 6293  4253  4255  1
 6294  4253  4254  1
 6295  4255  4256  1
 6296  4256  4258  1
 6297  4257  4259  1
 6298  4257  4258  1
 6299  4259  4260  1
 6300  4260  4262  1
 6301  4261  4263  1
 6302  4261  4262  1
 6303  4263  4264  1
 6304  4264  4266  1
 6305  4265  4267  1
 6306  4265  4266  1
 6307  4267  4268  1
 6308  4268  4270  1
 6309  4269  4271  1
 6310  4269  4270  1
 6311  4271  4272  1
 6312  4272  4274  1
 6313  4273  4275  1
 6314  4273  4274  1
 6315  4275  4276  1
 6316  4276  4278  1
 6317  4277  4279  1
 6318  4277  4278  1
 6319  4279  4280  1
 6320  4280  4282  1
 6321  4281  4283  1
 6322  4281  4282  1
 6323  4283  4284  1
 6324  4284  4286  1
 6325  4285  4287  1
 6326  4285  4286  1
 6327  4287  4288  1
 6328  4288  4290  1
 6329  4289  4291  1
 6330  4289  4290  1
 6331  4291  4292  1
 6332  4292  4294  1
 6333  4293  4295  1
 6334  4293  4294  1
 6335  4295  4296  1
 6336  4296  4298  1
 6337  4297  4299  1
 6338  4297  4298  1
 6339  4299  4300  1

@<TRIPOS>SUBSTRUCTURE
1 zzag        1 TEMP                        0 ****  **** 0 ROOT
