@<TRIPOS>MOLECULE
tube_zigzag
 4756 7093    1    0    0
SMALL
NO_CHARGES

@<TRIPOS>ATOM
      1 C          15.9796    1.2268    2.1270 ca      1  CNT         0.000000
      2 C          15.8388    2.4464    1.4180 ca      1  CNT         0.000000
      3 C          15.6050    3.6517    2.1270 ca      1  CNT         0.000000
      4 C          15.2797    4.8355    1.4180 ca      1  CNT         0.000000
      5 C          14.8647    5.9910    2.1270 ca      1  CNT         0.000000
      6 C          14.3625    7.1113    1.4180 ca      1  CNT         0.000000
      7 C          13.7760    8.1899    2.1270 ca      1  CNT         0.000000
      8 C          13.1086    9.2204    1.4180 ca      1  CNT         0.000000
      9 C          12.3643   10.1968    2.1270 ca      1  CNT         0.000000
     10 C          11.5475   11.1134    1.4180 ca      1  CNT         0.000000
     11 C          10.6629   11.9647    2.1270 ca      1  CNT         0.000000
     12 C           9.7157   12.7458    1.4180 ca      1  CNT         0.000000
     13 C           8.7115   13.4522    2.1270 ca      1  CNT         0.000000
     14 C           7.6562   14.0795    1.4180 ca      1  CNT         0.000000
     15 C           6.5560   14.6243    2.1270 ca      1  CNT         0.000000
     16 C           5.4173   15.0833    1.4180 ca      1  CNT         0.000000
     17 C           4.2467   15.4537    2.1270 ca      1  CNT         0.000000
     18 C           3.0513   15.7334    1.4180 ca      1  CNT         0.000000
     19 C           1.8380   15.9208    2.1270 ca      1  CNT         0.000000
     20 C           0.6139   16.0148    1.4180 ca      1  CNT         0.000000
     21 C          -0.6139   16.0148    2.1270 ca      1  CNT         0.000000
     22 C          -1.8380   15.9208    1.4180 ca      1  CNT         0.000000
     23 C          -3.0513   15.7334    2.1270 ca      1  CNT         0.000000
     24 C          -4.2467   15.4537    1.4180 ca      1  CNT         0.000000
     25 C          -5.4173   15.0833    2.1270 ca      1  CNT         0.000000
     26 C          -6.5560   14.6243    1.4180 ca      1  CNT         0.000000
     27 C          -7.6562   14.0795    2.1270 ca      1  CNT         0.000000
     28 C          -8.7115   13.4522    1.4180 ca      1  CNT         0.000000
     29 C          -9.7157   12.7458    2.1270 ca      1  CNT         0.000000
     30 C         -10.6629   11.9647    1.4180 ca      1  CNT         0.000000
     31 C         -11.5475   11.1134    2.1270 ca      1  CNT         0.000000
     32 C         -12.3643   10.1968    1.4180 ca      1  CNT         0.000000
     33 C         -13.1086    9.2204    2.1270 ca      1  CNT         0.000000
     34 C         -13.7760    8.1899    1.4180 ca      1  CNT         0.000000
     35 C         -14.3625    7.1113    2.1270 ca      1  CNT         0.000000
     36 C         -14.8647    5.9910    1.4180 ca      1  CNT         0.000000
     37 C         -15.2797    4.8355    2.1270 ca      1  CNT         0.000000
     38 C         -15.6050    3.6517    1.4180 ca      1  CNT         0.000000
     39 C         -15.8388    2.4464    2.1270 ca      1  CNT         0.000000
     40 C         -15.9796    1.2268    1.4180 ca      1  CNT         0.000000
     41 C         -16.0266   -0.0000    2.1270 ca      1  CNT         0.000000
     42 C         -15.9796   -1.2268    1.4180 ca      1  CNT         0.000000
     43 C         -15.8388   -2.4464    2.1270 ca      1  CNT         0.000000
     44 C         -15.6050   -3.6517    1.4180 ca      1  CNT         0.000000
     45 C         -15.2797   -4.8355    2.1270 ca      1  CNT         0.000000
     46 C         -14.8647   -5.9910    1.4180 ca      1  CNT         0.000000
     47 C         -14.3625   -7.1113    2.1270 ca      1  CNT         0.000000
     48 C         -13.7760   -8.1899    1.4180 ca      1  CNT         0.000000
     49 C         -13.1086   -9.2204    2.1270 ca      1  CNT         0.000000
     50 C         -12.3643  -10.1968    1.4180 ca      1  CNT         0.000000
     51 C         -11.5475  -11.1134    2.1270 ca      1  CNT         0.000000
     52 C         -10.6629  -11.9647    1.4180 ca      1  CNT         0.000000
     53 C          -9.7157  -12.7458    2.1270 ca      1  CNT         0.000000
     54 C          -8.7115  -13.4522    1.4180 ca      1  CNT         0.000000
     55 C          -7.6562  -14.0795    2.1270 ca      1  CNT         0.000000
     56 C          -6.5560  -14.6243    1.4180 ca      1  CNT         0.000000
     57 C          -5.4173  -15.0833    2.1270 ca      1  CNT         0.000000
     58 C          -4.2467  -15.4537    1.4180 ca      1  CNT         0.000000
     59 C          -3.0513  -15.7334    2.1270 ca      1  CNT         0.000000
     60 C          -1.8380  -15.9208    1.4180 ca      1  CNT         0.000000
     61 C          -0.6139  -16.0148    2.1270 ca      1  CNT         0.000000
     62 C           0.6139  -16.0148    1.4180 ca      1  CNT         0.000000
     63 C           1.8380  -15.9208    2.1270 ca      1  CNT         0.000000
     64 C           3.0513  -15.7334    1.4180 ca      1  CNT         0.000000
     65 C           4.2467  -15.4537    2.1270 ca      1  CNT         0.000000
     66 C           5.4173  -15.0833    1.4180 ca      1  CNT         0.000000
     67 C           6.5560  -14.6243    2.1270 ca      1  CNT         0.000000
     68 C           7.6562  -14.0795    1.4180 ca      1  CNT         0.000000
     69 C           8.7115  -13.4522    2.1270 ca      1  CNT         0.000000
     70 C           9.7157  -12.7458    1.4180 ca      1  CNT         0.000000
     71 C          10.6629  -11.9647    2.1270 ca      1  CNT         0.000000
     72 C          11.5475  -11.1134    1.4180 ca      1  CNT         0.000000
     73 C          12.3643  -10.1968    2.1270 ca      1  CNT         0.000000
     74 C          13.1086   -9.2204    1.4180 ca      1  CNT         0.000000
     75 C          13.7760   -8.1899    2.1270 ca      1  CNT         0.000000
     76 C          14.3625   -7.1113    1.4180 ca      1  CNT         0.000000
     77 C          14.8647   -5.9910    2.1270 ca      1  CNT         0.000000
     78 C          15.2797   -4.8355    1.4180 ca      1  CNT         0.000000
     79 C          15.6050   -3.6517    2.1270 ca      1  CNT         0.000000
     80 C          15.8388   -2.4464    1.4180 ca      1  CNT         0.000000
     81 C          15.9796   -1.2268    2.1270 ca      1  CNT         0.000000
     82 C          16.0266   -0.0000    1.4180 ca      1  CNT         0.000000
     83 C          16.0266    0.0000    0.0000 ca      1  CNT         0.000000
     84 C          15.9796    1.2268   -0.7090 ca      1  CNT         0.000000
     85 C          15.8388    2.4464    0.0000 ca      1  CNT         0.000000
     86 C          15.6050    3.6517   -0.7090 ca      1  CNT         0.000000
     87 C          15.2797    4.8355    0.0000 ca      1  CNT         0.000000
     88 C          14.8647    5.9910   -0.7090 ca      1  CNT         0.000000
     89 C          14.3625    7.1113    0.0000 ca      1  CNT         0.000000
     90 C          13.7760    8.1899   -0.7090 ca      1  CNT         0.000000
     91 C          13.1086    9.2204    0.0000 ca      1  CNT         0.000000
     92 C          12.3643   10.1968   -0.7090 ca      1  CNT         0.000000
     93 C          11.5475   11.1134    0.0000 ca      1  CNT         0.000000
     94 C          10.6629   11.9647   -0.7090 ca      1  CNT         0.000000
     95 C           9.7157   12.7458    0.0000 ca      1  CNT         0.000000
     96 C           8.7115   13.4522   -0.7090 ca      1  CNT         0.000000
     97 C           7.6562   14.0795    0.0000 ca      1  CNT         0.000000
     98 C           6.5560   14.6243   -0.7090 ca      1  CNT         0.000000
     99 C           5.4173   15.0833    0.0000 ca      1  CNT         0.000000
    100 C           4.2467   15.4537   -0.7090 ca      1  CNT         0.000000
    101 C           3.0513   15.7334    0.0000 ca      1  CNT         0.000000
    102 C           1.8380   15.9208   -0.7090 ca      1  CNT         0.000000
    103 C           0.6139   16.0148    0.0000 ca      1  CNT         0.000000
    104 C          -0.6139   16.0148   -0.7090 ca      1  CNT         0.000000
    105 C          -1.8380   15.9208    0.0000 ca      1  CNT         0.000000
    106 C          -3.0513   15.7334   -0.7090 ca      1  CNT         0.000000
    107 C          -4.2467   15.4537    0.0000 ca      1  CNT         0.000000
    108 C          -5.4173   15.0833   -0.7090 ca      1  CNT         0.000000
    109 C          -6.5560   14.6243    0.0000 ca      1  CNT         0.000000
    110 C          -7.6562   14.0795   -0.7090 ca      1  CNT         0.000000
    111 C          -8.7115   13.4522    0.0000 ca      1  CNT         0.000000
    112 C          -9.7157   12.7458   -0.7090 ca      1  CNT         0.000000
    113 C         -10.6629   11.9647    0.0000 ca      1  CNT         0.000000
    114 C         -11.5475   11.1134   -0.7090 ca      1  CNT         0.000000
    115 C         -12.3643   10.1968    0.0000 ca      1  CNT         0.000000
    116 C         -13.1086    9.2204   -0.7090 ca      1  CNT         0.000000
    117 C         -13.7760    8.1899    0.0000 ca      1  CNT         0.000000
    118 C         -14.3625    7.1113   -0.7090 ca      1  CNT         0.000000
    119 C         -14.8647    5.9910    0.0000 ca      1  CNT         0.000000
    120 C         -15.2797    4.8355   -0.7090 ca      1  CNT         0.000000
    121 C         -15.6050    3.6517    0.0000 ca      1  CNT         0.000000
    122 C         -15.8388    2.4464   -0.7090 ca      1  CNT         0.000000
    123 C         -15.9796    1.2268    0.0000 ca      1  CNT         0.000000
    124 C         -16.0266    0.0000   -0.7090 ca      1  CNT         0.000000
    125 C         -15.9796   -1.2268    0.0000 ca      1  CNT         0.000000
    126 C         -15.8388   -2.4464   -0.7090 ca      1  CNT         0.000000
    127 C         -15.6050   -3.6517    0.0000 ca      1  CNT         0.000000
    128 C         -15.2797   -4.8355   -0.7090 ca      1  CNT         0.000000
    129 C         -14.8647   -5.9910    0.0000 ca      1  CNT         0.000000
    130 C         -14.3625   -7.1113   -0.7090 ca      1  CNT         0.000000
    131 C         -13.7760   -8.1899    0.0000 ca      1  CNT         0.000000
    132 C         -13.1086   -9.2204   -0.7090 ca      1  CNT         0.000000
    133 C         -12.3643  -10.1968    0.0000 ca      1  CNT         0.000000
    134 C         -11.5475  -11.1134   -0.7090 ca      1  CNT         0.000000
    135 C         -10.6629  -11.9647    0.0000 ca      1  CNT         0.000000
    136 C          -9.7157  -12.7458   -0.7090 ca      1  CNT         0.000000
    137 C          -8.7115  -13.4522    0.0000 ca      1  CNT         0.000000
    138 C          -7.6562  -14.0795   -0.7090 ca      1  CNT         0.000000
    139 C          -6.5560  -14.6243    0.0000 ca      1  CNT         0.000000
    140 C          -5.4173  -15.0833   -0.7090 ca      1  CNT         0.000000
    141 C          -4.2467  -15.4537    0.0000 ca      1  CNT         0.000000
    142 C          -3.0513  -15.7334   -0.7090 ca      1  CNT         0.000000
    143 C          -1.8380  -15.9208    0.0000 ca      1  CNT         0.000000
    144 C          -0.6139  -16.0148   -0.7090 ca      1  CNT         0.000000
    145 C           0.6139  -16.0148    0.0000 ca      1  CNT         0.000000
    146 C           1.8380  -15.9208   -0.7090 ca      1  CNT         0.000000
    147 C           3.0513  -15.7334    0.0000 ca      1  CNT         0.000000
    148 C           4.2467  -15.4537   -0.7090 ca      1  CNT         0.000000
    149 C           5.4173  -15.0833    0.0000 ca      1  CNT         0.000000
    150 C           6.5560  -14.6243   -0.7090 ca      1  CNT         0.000000
    151 C           7.6562  -14.0795    0.0000 ca      1  CNT         0.000000
    152 C           8.7115  -13.4522   -0.7090 ca      1  CNT         0.000000
    153 C           9.7157  -12.7458    0.0000 ca      1  CNT         0.000000
    154 C          10.6629  -11.9647   -0.7090 ca      1  CNT         0.000000
    155 C          11.5475  -11.1134    0.0000 ca      1  CNT         0.000000
    156 C          12.3643  -10.1968   -0.7090 ca      1  CNT         0.000000
    157 C          13.1086   -9.2204    0.0000 ca      1  CNT         0.000000
    158 C          13.7760   -8.1899   -0.7090 ca      1  CNT         0.000000
    159 C          14.3625   -7.1113    0.0000 ca      1  CNT         0.000000
    160 C          14.8647   -5.9910   -0.7090 ca      1  CNT         0.000000
    161 C          15.2797   -4.8355    0.0000 ca      1  CNT         0.000000
    162 C          15.6050   -3.6517   -0.7090 ca      1  CNT         0.000000
    163 C          15.8388   -2.4464    0.0000 ca      1  CNT         0.000000
    164 C          15.9796   -1.2268   -0.7090 ca      1  CNT         0.000000
    165 C          15.9796    1.2268    6.3810 ca      1  CNT         0.000000
    166 C          15.8388    2.4464    5.6720 ca      1  CNT         0.000000
    167 C          15.6050    3.6517    6.3810 ca      1  CNT         0.000000
    168 C          15.2797    4.8355    5.6720 ca      1  CNT         0.000000
    169 C          14.8647    5.9910    6.3810 ca      1  CNT         0.000000
    170 C          14.3625    7.1113    5.6720 ca      1  CNT         0.000000
    171 C          13.7760    8.1899    6.3810 ca      1  CNT         0.000000
    172 C          13.1086    9.2204    5.6720 ca      1  CNT         0.000000
    173 C          12.3643   10.1968    6.3810 ca      1  CNT         0.000000
    174 C          11.5475   11.1134    5.6720 ca      1  CNT         0.000000
    175 C          10.6629   11.9647    6.3810 ca      1  CNT         0.000000
    176 C           9.7157   12.7458    5.6720 ca      1  CNT         0.000000
    177 C           8.7115   13.4522    6.3810 ca      1  CNT         0.000000
    178 C           7.6562   14.0795    5.6720 ca      1  CNT         0.000000
    179 C           6.5560   14.6243    6.3810 ca      1  CNT         0.000000
    180 C           5.4173   15.0833    5.6720 ca      1  CNT         0.000000
    181 C           4.2467   15.4537    6.3810 ca      1  CNT         0.000000
    182 C           3.0513   15.7334    5.6720 ca      1  CNT         0.000000
    183 C           1.8380   15.9208    6.3810 ca      1  CNT         0.000000
    184 C           0.6139   16.0148    5.6720 ca      1  CNT         0.000000
    185 C          -0.6139   16.0148    6.3810 ca      1  CNT         0.000000
    186 C          -1.8380   15.9208    5.6720 ca      1  CNT         0.000000
    187 C          -3.0513   15.7334    6.3810 ca      1  CNT         0.000000
    188 C          -4.2467   15.4537    5.6720 ca      1  CNT         0.000000
    189 C          -5.4173   15.0833    6.3810 ca      1  CNT         0.000000
    190 C          -6.5560   14.6243    5.6720 ca      1  CNT         0.000000
    191 C          -7.6562   14.0795    6.3810 ca      1  CNT         0.000000
    192 C          -8.7115   13.4522    5.6720 ca      1  CNT         0.000000
    193 C          -9.7157   12.7458    6.3810 ca      1  CNT         0.000000
    194 C         -10.6629   11.9647    5.6720 ca      1  CNT         0.000000
    195 C         -11.5475   11.1134    6.3810 ca      1  CNT         0.000000
    196 C         -12.3643   10.1968    5.6720 ca      1  CNT         0.000000
    197 C         -13.1086    9.2204    6.3810 ca      1  CNT         0.000000
    198 C         -13.7760    8.1899    5.6720 ca      1  CNT         0.000000
    199 C         -14.3625    7.1113    6.3810 ca      1  CNT         0.000000
    200 C         -14.8647    5.9910    5.6720 ca      1  CNT         0.000000
    201 C         -15.2797    4.8355    6.3810 ca      1  CNT         0.000000
    202 C         -15.6050    3.6517    5.6720 ca      1  CNT         0.000000
    203 C         -15.8388    2.4464    6.3810 ca      1  CNT         0.000000
    204 C         -15.9796    1.2268    5.6720 ca      1  CNT         0.000000
    205 C         -16.0266   -0.0000    6.3810 ca      1  CNT         0.000000
    206 C         -15.9796   -1.2268    5.6720 ca      1  CNT         0.000000
    207 C         -15.8388   -2.4464    6.3810 ca      1  CNT         0.000000
    208 C         -15.6050   -3.6517    5.6720 ca      1  CNT         0.000000
    209 C         -15.2797   -4.8355    6.3810 ca      1  CNT         0.000000
    210 C         -14.8647   -5.9910    5.6720 ca      1  CNT         0.000000
    211 C         -14.3625   -7.1113    6.3810 ca      1  CNT         0.000000
    212 C         -13.7760   -8.1899    5.6720 ca      1  CNT         0.000000
    213 C         -13.1086   -9.2204    6.3810 ca      1  CNT         0.000000
    214 C         -12.3643  -10.1968    5.6720 ca      1  CNT         0.000000
    215 C         -11.5475  -11.1134    6.3810 ca      1  CNT         0.000000
    216 C         -10.6629  -11.9647    5.6720 ca      1  CNT         0.000000
    217 C          -9.7157  -12.7458    6.3810 ca      1  CNT         0.000000
    218 C          -8.7115  -13.4522    5.6720 ca      1  CNT         0.000000
    219 C          -7.6562  -14.0795    6.3810 ca      1  CNT         0.000000
    220 C          -6.5560  -14.6243    5.6720 ca      1  CNT         0.000000
    221 C          -5.4173  -15.0833    6.3810 ca      1  CNT         0.000000
    222 C          -4.2467  -15.4537    5.6720 ca      1  CNT         0.000000
    223 C          -3.0513  -15.7334    6.3810 ca      1  CNT         0.000000
    224 C          -1.8380  -15.9208    5.6720 ca      1  CNT         0.000000
    225 C          -0.6139  -16.0148    6.3810 ca      1  CNT         0.000000
    226 C           0.6139  -16.0148    5.6720 ca      1  CNT         0.000000
    227 C           1.8380  -15.9208    6.3810 ca      1  CNT         0.000000
    228 C           3.0513  -15.7334    5.6720 ca      1  CNT         0.000000
    229 C           4.2467  -15.4537    6.3810 ca      1  CNT         0.000000
    230 C           5.4173  -15.0833    5.6720 ca      1  CNT         0.000000
    231 C           6.5560  -14.6243    6.3810 ca      1  CNT         0.000000
    232 C           7.6562  -14.0795    5.6720 ca      1  CNT         0.000000
    233 C           8.7115  -13.4522    6.3810 ca      1  CNT         0.000000
    234 C           9.7157  -12.7458    5.6720 ca      1  CNT         0.000000
    235 C          10.6629  -11.9647    6.3810 ca      1  CNT         0.000000
    236 C          11.5475  -11.1134    5.6720 ca      1  CNT         0.000000
    237 C          12.3643  -10.1968    6.3810 ca      1  CNT         0.000000
    238 C          13.1086   -9.2204    5.6720 ca      1  CNT         0.000000
    239 C          13.7760   -8.1899    6.3810 ca      1  CNT         0.000000
    240 C          14.3625   -7.1113    5.6720 ca      1  CNT         0.000000
    241 C          14.8647   -5.9910    6.3810 ca      1  CNT         0.000000
    242 C          15.2797   -4.8355    5.6720 ca      1  CNT         0.000000
    243 C          15.6050   -3.6517    6.3810 ca      1  CNT         0.000000
    244 C          15.8388   -2.4464    5.6720 ca      1  CNT         0.000000
    245 C          15.9796   -1.2268    6.3810 ca      1  CNT         0.000000
    246 C          16.0266   -0.0000    5.6720 ca      1  CNT         0.000000
    247 C          16.0266    0.0000    4.2540 ca      1  CNT         0.000000
    248 C          15.9796    1.2268    3.5450 ca      1  CNT         0.000000
    249 C          15.8388    2.4464    4.2540 ca      1  CNT         0.000000
    250 C          15.6050    3.6517    3.5450 ca      1  CNT         0.000000
    251 C          15.2797    4.8355    4.2540 ca      1  CNT         0.000000
    252 C          14.8647    5.9910    3.5450 ca      1  CNT         0.000000
    253 C          14.3625    7.1113    4.2540 ca      1  CNT         0.000000
    254 C          13.7760    8.1899    3.5450 ca      1  CNT         0.000000
    255 C          13.1086    9.2204    4.2540 ca      1  CNT         0.000000
    256 C          12.3643   10.1968    3.5450 ca      1  CNT         0.000000
    257 C          11.5475   11.1134    4.2540 ca      1  CNT         0.000000
    258 C          10.6629   11.9647    3.5450 ca      1  CNT         0.000000
    259 C           9.7157   12.7458    4.2540 ca      1  CNT         0.000000
    260 C           8.7115   13.4522    3.5450 ca      1  CNT         0.000000
    261 C           7.6562   14.0795    4.2540 ca      1  CNT         0.000000
    262 C           6.5560   14.6243    3.5450 ca      1  CNT         0.000000
    263 C           5.4173   15.0833    4.2540 ca      1  CNT         0.000000
    264 C           4.2467   15.4537    3.5450 ca      1  CNT         0.000000
    265 C           3.0513   15.7334    4.2540 ca      1  CNT         0.000000
    266 C           1.8380   15.9208    3.5450 ca      1  CNT         0.000000
    267 C           0.6139   16.0148    4.2540 ca      1  CNT         0.000000
    268 C          -0.6139   16.0148    3.5450 ca      1  CNT         0.000000
    269 C          -1.8380   15.9208    4.2540 ca      1  CNT         0.000000
    270 C          -3.0513   15.7334    3.5450 ca      1  CNT         0.000000
    271 C          -4.2467   15.4537    4.2540 ca      1  CNT         0.000000
    272 C          -5.4173   15.0833    3.5450 ca      1  CNT         0.000000
    273 C          -6.5560   14.6243    4.2540 ca      1  CNT         0.000000
    274 C          -7.6562   14.0795    3.5450 ca      1  CNT         0.000000
    275 C          -8.7115   13.4522    4.2540 ca      1  CNT         0.000000
    276 C          -9.7157   12.7458    3.5450 ca      1  CNT         0.000000
    277 C         -10.6629   11.9647    4.2540 ca      1  CNT         0.000000
    278 C         -11.5475   11.1134    3.5450 ca      1  CNT         0.000000
    279 C         -12.3643   10.1968    4.2540 ca      1  CNT         0.000000
    280 C         -13.1086    9.2204    3.5450 ca      1  CNT         0.000000
    281 C         -13.7760    8.1899    4.2540 ca      1  CNT         0.000000
    282 C         -14.3625    7.1113    3.5450 ca      1  CNT         0.000000
    283 C         -14.8647    5.9910    4.2540 ca      1  CNT         0.000000
    284 C         -15.2797    4.8355    3.5450 ca      1  CNT         0.000000
    285 C         -15.6050    3.6517    4.2540 ca      1  CNT         0.000000
    286 C         -15.8388    2.4464    3.5450 ca      1  CNT         0.000000
    287 C         -15.9796    1.2268    4.2540 ca      1  CNT         0.000000
    288 C         -16.0266    0.0000    3.5450 ca      1  CNT         0.000000
    289 C         -15.9796   -1.2268    4.2540 ca      1  CNT         0.000000
    290 C         -15.8388   -2.4464    3.5450 ca      1  CNT         0.000000
    291 C         -15.6050   -3.6517    4.2540 ca      1  CNT         0.000000
    292 C         -15.2797   -4.8355    3.5450 ca      1  CNT         0.000000
    293 C         -14.8647   -5.9910    4.2540 ca      1  CNT         0.000000
    294 C         -14.3625   -7.1113    3.5450 ca      1  CNT         0.000000
    295 C         -13.7760   -8.1899    4.2540 ca      1  CNT         0.000000
    296 C         -13.1086   -9.2204    3.5450 ca      1  CNT         0.000000
    297 C         -12.3643  -10.1968    4.2540 ca      1  CNT         0.000000
    298 C         -11.5475  -11.1134    3.5450 ca      1  CNT         0.000000
    299 C         -10.6629  -11.9647    4.2540 ca      1  CNT         0.000000
    300 C          -9.7157  -12.7458    3.5450 ca      1  CNT         0.000000
    301 C          -8.7115  -13.4522    4.2540 ca      1  CNT         0.000000
    302 C          -7.6562  -14.0795    3.5450 ca      1  CNT         0.000000
    303 C          -6.5560  -14.6243    4.2540 ca      1  CNT         0.000000
    304 C          -5.4173  -15.0833    3.5450 ca      1  CNT         0.000000
    305 C          -4.2467  -15.4537    4.2540 ca      1  CNT         0.000000
    306 C          -3.0513  -15.7334    3.5450 ca      1  CNT         0.000000
    307 C          -1.8380  -15.9208    4.2540 ca      1  CNT         0.000000
    308 C          -0.6139  -16.0148    3.5450 ca      1  CNT         0.000000
    309 C           0.6139  -16.0148    4.2540 ca      1  CNT         0.000000
    310 C           1.8380  -15.9208    3.5450 ca      1  CNT         0.000000
    311 C           3.0513  -15.7334    4.2540 ca      1  CNT         0.000000
    312 C           4.2467  -15.4537    3.5450 ca      1  CNT         0.000000
    313 C           5.4173  -15.0833    4.2540 ca      1  CNT         0.000000
    314 C           6.5560  -14.6243    3.5450 ca      1  CNT         0.000000
    315 C           7.6562  -14.0795    4.2540 ca      1  CNT         0.000000
    316 C           8.7115  -13.4522    3.5450 ca      1  CNT         0.000000
    317 C           9.7157  -12.7458    4.2540 ca      1  CNT         0.000000
    318 C          10.6629  -11.9647    3.5450 ca      1  CNT         0.000000
    319 C          11.5475  -11.1134    4.2540 ca      1  CNT         0.000000
    320 C          12.3643  -10.1968    3.5450 ca      1  CNT         0.000000
    321 C          13.1086   -9.2204    4.2540 ca      1  CNT         0.000000
    322 C          13.7760   -8.1899    3.5450 ca      1  CNT         0.000000
    323 C          14.3625   -7.1113    4.2540 ca      1  CNT         0.000000
    324 C          14.8647   -5.9910    3.5450 ca      1  CNT         0.000000
    325 C          15.2797   -4.8355    4.2540 ca      1  CNT         0.000000
    326 C          15.6050   -3.6517    3.5450 ca      1  CNT         0.000000
    327 C          15.8388   -2.4464    4.2540 ca      1  CNT         0.000000
    328 C          15.9796   -1.2268    3.5450 ca      1  CNT         0.000000
    329 C          15.9796    1.2268   10.6350 ca      1  CNT         0.000000
    330 C          15.8388    2.4464    9.9260 ca      1  CNT         0.000000
    331 C          15.6050    3.6517   10.6350 ca      1  CNT         0.000000
    332 C          15.2797    4.8355    9.9260 ca      1  CNT         0.000000
    333 C          14.8647    5.9910   10.6350 ca      1  CNT         0.000000
    334 C          14.3625    7.1113    9.9260 ca      1  CNT         0.000000
    335 C          13.7760    8.1899   10.6350 ca      1  CNT         0.000000
    336 C          13.1086    9.2204    9.9260 ca      1  CNT         0.000000
    337 C          12.3643   10.1968   10.6350 ca      1  CNT         0.000000
    338 C          11.5475   11.1134    9.9260 ca      1  CNT         0.000000
    339 C          10.6629   11.9647   10.6350 ca      1  CNT         0.000000
    340 C           9.7157   12.7458    9.9260 ca      1  CNT         0.000000
    341 C           8.7115   13.4522   10.6350 ca      1  CNT         0.000000
    342 C           7.6562   14.0795    9.9260 ca      1  CNT         0.000000
    343 C           6.5560   14.6243   10.6350 ca      1  CNT         0.000000
    344 C           5.4173   15.0833    9.9260 ca      1  CNT         0.000000
    345 C           4.2467   15.4537   10.6350 ca      1  CNT         0.000000
    346 C           3.0513   15.7334    9.9260 ca      1  CNT         0.000000
    347 C           1.8380   15.9208   10.6350 ca      1  CNT         0.000000
    348 C           0.6139   16.0148    9.9260 ca      1  CNT         0.000000
    349 C          -0.6139   16.0148   10.6350 ca      1  CNT         0.000000
    350 C          -1.8380   15.9208    9.9260 ca      1  CNT         0.000000
    351 C          -3.0513   15.7334   10.6350 ca      1  CNT         0.000000
    352 C          -4.2467   15.4537    9.9260 ca      1  CNT         0.000000
    353 C          -5.4173   15.0833   10.6350 ca      1  CNT         0.000000
    354 C          -6.5560   14.6243    9.9260 ca      1  CNT         0.000000
    355 C          -7.6562   14.0795   10.6350 ca      1  CNT         0.000000
    356 C          -8.7115   13.4522    9.9260 ca      1  CNT         0.000000
    357 C          -9.7157   12.7458   10.6350 ca      1  CNT         0.000000
    358 C         -10.6629   11.9647    9.9260 ca      1  CNT         0.000000
    359 C         -11.5475   11.1134   10.6350 ca      1  CNT         0.000000
    360 C         -12.3643   10.1968    9.9260 ca      1  CNT         0.000000
    361 C         -13.1086    9.2204   10.6350 ca      1  CNT         0.000000
    362 C         -13.7760    8.1899    9.9260 ca      1  CNT         0.000000
    363 C         -14.3625    7.1113   10.6350 ca      1  CNT         0.000000
    364 C         -14.8647    5.9910    9.9260 ca      1  CNT         0.000000
    365 C         -15.2797    4.8355   10.6350 ca      1  CNT         0.000000
    366 C         -15.6050    3.6517    9.9260 ca      1  CNT         0.000000
    367 C         -15.8388    2.4464   10.6350 ca      1  CNT         0.000000
    368 C         -15.9796    1.2268    9.9260 ca      1  CNT         0.000000
    369 C         -16.0266   -0.0000   10.6350 ca      1  CNT         0.000000
    370 C         -15.9796   -1.2268    9.9260 ca      1  CNT         0.000000
    371 C         -15.8388   -2.4464   10.6350 ca      1  CNT         0.000000
    372 C         -15.6050   -3.6517    9.9260 ca      1  CNT         0.000000
    373 C         -15.2797   -4.8355   10.6350 ca      1  CNT         0.000000
    374 C         -14.8647   -5.9910    9.9260 ca      1  CNT         0.000000
    375 C         -14.3625   -7.1113   10.6350 ca      1  CNT         0.000000
    376 C         -13.7760   -8.1899    9.9260 ca      1  CNT         0.000000
    377 C         -13.1086   -9.2204   10.6350 ca      1  CNT         0.000000
    378 C         -12.3643  -10.1968    9.9260 ca      1  CNT         0.000000
    379 C         -11.5475  -11.1134   10.6350 ca      1  CNT         0.000000
    380 C         -10.6629  -11.9647    9.9260 ca      1  CNT         0.000000
    381 C          -9.7157  -12.7458   10.6350 ca      1  CNT         0.000000
    382 C          -8.7115  -13.4522    9.9260 ca      1  CNT         0.000000
    383 C          -7.6562  -14.0795   10.6350 ca      1  CNT         0.000000
    384 C          -6.5560  -14.6243    9.9260 ca      1  CNT         0.000000
    385 C          -5.4173  -15.0833   10.6350 ca      1  CNT         0.000000
    386 C          -4.2467  -15.4537    9.9260 ca      1  CNT         0.000000
    387 C          -3.0513  -15.7334   10.6350 ca      1  CNT         0.000000
    388 C          -1.8380  -15.9208    9.9260 ca      1  CNT         0.000000
    389 C          -0.6139  -16.0148   10.6350 ca      1  CNT         0.000000
    390 C           0.6139  -16.0148    9.9260 ca      1  CNT         0.000000
    391 C           1.8380  -15.9208   10.6350 ca      1  CNT         0.000000
    392 C           3.0513  -15.7334    9.9260 ca      1  CNT         0.000000
    393 C           4.2467  -15.4537   10.6350 ca      1  CNT         0.000000
    394 C           5.4173  -15.0833    9.9260 ca      1  CNT         0.000000
    395 C           6.5560  -14.6243   10.6350 ca      1  CNT         0.000000
    396 C           7.6562  -14.0795    9.9260 ca      1  CNT         0.000000
    397 C           8.7115  -13.4522   10.6350 ca      1  CNT         0.000000
    398 C           9.7157  -12.7458    9.9260 ca      1  CNT         0.000000
    399 C          10.6629  -11.9647   10.6350 ca      1  CNT         0.000000
    400 C          11.5475  -11.1134    9.9260 ca      1  CNT         0.000000
    401 C          12.3643  -10.1968   10.6350 ca      1  CNT         0.000000
    402 C          13.1086   -9.2204    9.9260 ca      1  CNT         0.000000
    403 C          13.7760   -8.1899   10.6350 ca      1  CNT         0.000000
    404 C          14.3625   -7.1113    9.9260 ca      1  CNT         0.000000
    405 C          14.8647   -5.9910   10.6350 ca      1  CNT         0.000000
    406 C          15.2797   -4.8355    9.9260 ca      1  CNT         0.000000
    407 C          15.6050   -3.6517   10.6350 ca      1  CNT         0.000000
    408 C          15.8388   -2.4464    9.9260 ca      1  CNT         0.000000
    409 C          15.9796   -1.2268   10.6350 ca      1  CNT         0.000000
    410 C          16.0266   -0.0000    9.9260 ca      1  CNT         0.000000
    411 C          16.0266    0.0000    8.5080 ca      1  CNT         0.000000
    412 C          15.9796    1.2268    7.7990 ca      1  CNT         0.000000
    413 C          15.8388    2.4464    8.5080 ca      1  CNT         0.000000
    414 C          15.6050    3.6517    7.7990 ca      1  CNT         0.000000
    415 C          15.2797    4.8355    8.5080 ca      1  CNT         0.000000
    416 C          14.8647    5.9910    7.7990 ca      1  CNT         0.000000
    417 C          14.3625    7.1113    8.5080 ca      1  CNT         0.000000
    418 C          13.7760    8.1899    7.7990 ca      1  CNT         0.000000
    419 C          13.1086    9.2204    8.5080 ca      1  CNT         0.000000
    420 C          12.3643   10.1968    7.7990 ca      1  CNT         0.000000
    421 C          11.5475   11.1134    8.5080 ca      1  CNT         0.000000
    422 C          10.6629   11.9647    7.7990 ca      1  CNT         0.000000
    423 C           9.7157   12.7458    8.5080 ca      1  CNT         0.000000
    424 C           8.7115   13.4522    7.7990 ca      1  CNT         0.000000
    425 C           7.6562   14.0795    8.5080 ca      1  CNT         0.000000
    426 C           6.5560   14.6243    7.7990 ca      1  CNT         0.000000
    427 C           5.4173   15.0833    8.5080 ca      1  CNT         0.000000
    428 C           4.2467   15.4537    7.7990 ca      1  CNT         0.000000
    429 C           3.0513   15.7334    8.5080 ca      1  CNT         0.000000
    430 C           1.8380   15.9208    7.7990 ca      1  CNT         0.000000
    431 C           0.6139   16.0148    8.5080 ca      1  CNT         0.000000
    432 C          -0.6139   16.0148    7.7990 ca      1  CNT         0.000000
    433 C          -1.8380   15.9208    8.5080 ca      1  CNT         0.000000
    434 C          -3.0513   15.7334    7.7990 ca      1  CNT         0.000000
    435 C          -4.2467   15.4537    8.5080 ca      1  CNT         0.000000
    436 C          -5.4173   15.0833    7.7990 ca      1  CNT         0.000000
    437 C          -6.5560   14.6243    8.5080 ca      1  CNT         0.000000
    438 C          -7.6562   14.0795    7.7990 ca      1  CNT         0.000000
    439 C          -8.7115   13.4522    8.5080 ca      1  CNT         0.000000
    440 C          -9.7157   12.7458    7.7990 ca      1  CNT         0.000000
    441 C         -10.6629   11.9647    8.5080 ca      1  CNT         0.000000
    442 C         -11.5475   11.1134    7.7990 ca      1  CNT         0.000000
    443 C         -12.3643   10.1968    8.5080 ca      1  CNT         0.000000
    444 C         -13.1086    9.2204    7.7990 ca      1  CNT         0.000000
    445 C         -13.7760    8.1899    8.5080 ca      1  CNT         0.000000
    446 C         -14.3625    7.1113    7.7990 ca      1  CNT         0.000000
    447 C         -14.8647    5.9910    8.5080 ca      1  CNT         0.000000
    448 C         -15.2797    4.8355    7.7990 ca      1  CNT         0.000000
    449 C         -15.6050    3.6517    8.5080 ca      1  CNT         0.000000
    450 C         -15.8388    2.4464    7.7990 ca      1  CNT         0.000000
    451 C         -15.9796    1.2268    8.5080 ca      1  CNT         0.000000
    452 C         -16.0266    0.0000    7.7990 ca      1  CNT         0.000000
    453 C         -15.9796   -1.2268    8.5080 ca      1  CNT         0.000000
    454 C         -15.8388   -2.4464    7.7990 ca      1  CNT         0.000000
    455 C         -15.6050   -3.6517    8.5080 ca      1  CNT         0.000000
    456 C         -15.2797   -4.8355    7.7990 ca      1  CNT         0.000000
    457 C         -14.8647   -5.9910    8.5080 ca      1  CNT         0.000000
    458 C         -14.3625   -7.1113    7.7990 ca      1  CNT         0.000000
    459 C         -13.7760   -8.1899    8.5080 ca      1  CNT         0.000000
    460 C         -13.1086   -9.2204    7.7990 ca      1  CNT         0.000000
    461 C         -12.3643  -10.1968    8.5080 ca      1  CNT         0.000000
    462 C         -11.5475  -11.1134    7.7990 ca      1  CNT         0.000000
    463 C         -10.6629  -11.9647    8.5080 ca      1  CNT         0.000000
    464 C          -9.7157  -12.7458    7.7990 ca      1  CNT         0.000000
    465 C          -8.7115  -13.4522    8.5080 ca      1  CNT         0.000000
    466 C          -7.6562  -14.0795    7.7990 ca      1  CNT         0.000000
    467 C          -6.5560  -14.6243    8.5080 ca      1  CNT         0.000000
    468 C          -5.4173  -15.0833    7.7990 ca      1  CNT         0.000000
    469 C          -4.2467  -15.4537    8.5080 ca      1  CNT         0.000000
    470 C          -3.0513  -15.7334    7.7990 ca      1  CNT         0.000000
    471 C          -1.8380  -15.9208    8.5080 ca      1  CNT         0.000000
    472 C          -0.6139  -16.0148    7.7990 ca      1  CNT         0.000000
    473 C           0.6139  -16.0148    8.5080 ca      1  CNT         0.000000
    474 C           1.8380  -15.9208    7.7990 ca      1  CNT         0.000000
    475 C           3.0513  -15.7334    8.5080 ca      1  CNT         0.000000
    476 C           4.2467  -15.4537    7.7990 ca      1  CNT         0.000000
    477 C           5.4173  -15.0833    8.5080 ca      1  CNT         0.000000
    478 C           6.5560  -14.6243    7.7990 ca      1  CNT         0.000000
    479 C           7.6562  -14.0795    8.5080 ca      1  CNT         0.000000
    480 C           8.7115  -13.4522    7.7990 ca      1  CNT         0.000000
    481 C           9.7157  -12.7458    8.5080 ca      1  CNT         0.000000
    482 C          10.6629  -11.9647    7.7990 ca      1  CNT         0.000000
    483 C          11.5475  -11.1134    8.5080 ca      1  CNT         0.000000
    484 C          12.3643  -10.1968    7.7990 ca      1  CNT         0.000000
    485 C          13.1086   -9.2204    8.5080 ca      1  CNT         0.000000
    486 C          13.7760   -8.1899    7.7990 ca      1  CNT         0.000000
    487 C          14.3625   -7.1113    8.5080 ca      1  CNT         0.000000
    488 C          14.8647   -5.9910    7.7990 ca      1  CNT         0.000000
    489 C          15.2797   -4.8355    8.5080 ca      1  CNT         0.000000
    490 C          15.6050   -3.6517    7.7990 ca      1  CNT         0.000000
    491 C          15.8388   -2.4464    8.5080 ca      1  CNT         0.000000
    492 C          15.9796   -1.2268    7.7990 ca      1  CNT         0.000000
    493 C          15.9796    1.2268   14.8890 ca      1  CNT         0.000000
    494 C          15.8388    2.4464   14.1800 ca      1  CNT         0.000000
    495 C          15.6050    3.6517   14.8890 ca      1  CNT         0.000000
    496 C          15.2797    4.8355   14.1800 ca      1  CNT         0.000000
    497 C          14.8647    5.9910   14.8890 ca      1  CNT         0.000000
    498 C          14.3625    7.1113   14.1800 ca      1  CNT         0.000000
    499 C          13.7760    8.1899   14.8890 ca      1  CNT         0.000000
    500 C          13.1086    9.2204   14.1800 ca      1  CNT         0.000000
    501 C          12.3643   10.1968   14.8890 ca      1  CNT         0.000000
    502 C          11.5475   11.1134   14.1800 ca      1  CNT         0.000000
    503 C          10.6629   11.9647   14.8890 ca      1  CNT         0.000000
    504 C           9.7157   12.7458   14.1800 ca      1  CNT         0.000000
    505 C           8.7115   13.4522   14.8890 ca      1  CNT         0.000000
    506 C           7.6562   14.0795   14.1800 ca      1  CNT         0.000000
    507 C           6.5560   14.6243   14.8890 ca      1  CNT         0.000000
    508 C           5.4173   15.0833   14.1800 ca      1  CNT         0.000000
    509 C           4.2467   15.4537   14.8890 ca      1  CNT         0.000000
    510 C           3.0513   15.7334   14.1800 ca      1  CNT         0.000000
    511 C           1.8380   15.9208   14.8890 ca      1  CNT         0.000000
    512 C           0.6139   16.0148   14.1800 ca      1  CNT         0.000000
    513 C          -0.6139   16.0148   14.8890 ca      1  CNT         0.000000
    514 C          -1.8380   15.9208   14.1800 ca      1  CNT         0.000000
    515 C          -3.0513   15.7334   14.8890 ca      1  CNT         0.000000
    516 C          -4.2467   15.4537   14.1800 ca      1  CNT         0.000000
    517 C          -5.4173   15.0833   14.8890 ca      1  CNT         0.000000
    518 C          -6.5560   14.6243   14.1800 ca      1  CNT         0.000000
    519 C          -7.6562   14.0795   14.8890 ca      1  CNT         0.000000
    520 C          -8.7115   13.4522   14.1800 ca      1  CNT         0.000000
    521 C          -9.7157   12.7458   14.8890 ca      1  CNT         0.000000
    522 C         -10.6629   11.9647   14.1800 ca      1  CNT         0.000000
    523 C         -11.5475   11.1134   14.8890 ca      1  CNT         0.000000
    524 C         -12.3643   10.1968   14.1800 ca      1  CNT         0.000000
    525 C         -13.1086    9.2204   14.8890 ca      1  CNT         0.000000
    526 C         -13.7760    8.1899   14.1800 ca      1  CNT         0.000000
    527 C         -14.3625    7.1113   14.8890 ca      1  CNT         0.000000
    528 C         -14.8647    5.9910   14.1800 ca      1  CNT         0.000000
    529 C         -15.2797    4.8355   14.8890 ca      1  CNT         0.000000
    530 C         -15.6050    3.6517   14.1800 ca      1  CNT         0.000000
    531 C         -15.8388    2.4464   14.8890 ca      1  CNT         0.000000
    532 C         -15.9796    1.2268   14.1800 ca      1  CNT         0.000000
    533 C         -16.0266   -0.0000   14.8890 ca      1  CNT         0.000000
    534 C         -15.9796   -1.2268   14.1800 ca      1  CNT         0.000000
    535 C         -15.8388   -2.4464   14.8890 ca      1  CNT         0.000000
    536 C         -15.6050   -3.6517   14.1800 ca      1  CNT         0.000000
    537 C         -15.2797   -4.8355   14.8890 ca      1  CNT         0.000000
    538 C         -14.8647   -5.9910   14.1800 ca      1  CNT         0.000000
    539 C         -14.3625   -7.1113   14.8890 ca      1  CNT         0.000000
    540 C         -13.7760   -8.1899   14.1800 ca      1  CNT         0.000000
    541 C         -13.1086   -9.2204   14.8890 ca      1  CNT         0.000000
    542 C         -12.3643  -10.1968   14.1800 ca      1  CNT         0.000000
    543 C         -11.5475  -11.1134   14.8890 ca      1  CNT         0.000000
    544 C         -10.6629  -11.9647   14.1800 ca      1  CNT         0.000000
    545 C          -9.7157  -12.7458   14.8890 ca      1  CNT         0.000000
    546 C          -8.7115  -13.4522   14.1800 ca      1  CNT         0.000000
    547 C          -7.6562  -14.0795   14.8890 ca      1  CNT         0.000000
    548 C          -6.5560  -14.6243   14.1800 ca      1  CNT         0.000000
    549 C          -5.4173  -15.0833   14.8890 ca      1  CNT         0.000000
    550 C          -4.2467  -15.4537   14.1800 ca      1  CNT         0.000000
    551 C          -3.0513  -15.7334   14.8890 ca      1  CNT         0.000000
    552 C          -1.8380  -15.9208   14.1800 ca      1  CNT         0.000000
    553 C          -0.6139  -16.0148   14.8890 ca      1  CNT         0.000000
    554 C           0.6139  -16.0148   14.1800 ca      1  CNT         0.000000
    555 C           1.8380  -15.9208   14.8890 ca      1  CNT         0.000000
    556 C           3.0513  -15.7334   14.1800 ca      1  CNT         0.000000
    557 C           4.2467  -15.4537   14.8890 ca      1  CNT         0.000000
    558 C           5.4173  -15.0833   14.1800 ca      1  CNT         0.000000
    559 C           6.5560  -14.6243   14.8890 ca      1  CNT         0.000000
    560 C           7.6562  -14.0795   14.1800 ca      1  CNT         0.000000
    561 C           8.7115  -13.4522   14.8890 ca      1  CNT         0.000000
    562 C           9.7157  -12.7458   14.1800 ca      1  CNT         0.000000
    563 C          10.6629  -11.9647   14.8890 ca      1  CNT         0.000000
    564 C          11.5475  -11.1134   14.1800 ca      1  CNT         0.000000
    565 C          12.3643  -10.1968   14.8890 ca      1  CNT         0.000000
    566 C          13.1086   -9.2204   14.1800 ca      1  CNT         0.000000
    567 C          13.7760   -8.1899   14.8890 ca      1  CNT         0.000000
    568 C          14.3625   -7.1113   14.1800 ca      1  CNT         0.000000
    569 C          14.8647   -5.9910   14.8890 ca      1  CNT         0.000000
    570 C          15.2797   -4.8355   14.1800 ca      1  CNT         0.000000
    571 C          15.6050   -3.6517   14.8890 ca      1  CNT         0.000000
    572 C          15.8388   -2.4464   14.1800 ca      1  CNT         0.000000
    573 C          15.9796   -1.2268   14.8890 ca      1  CNT         0.000000
    574 C          16.0266   -0.0000   14.1800 ca      1  CNT         0.000000
    575 C          16.0266    0.0000   12.7620 ca      1  CNT         0.000000
    576 C          15.9796    1.2268   12.0530 ca      1  CNT         0.000000
    577 C          15.8388    2.4464   12.7620 ca      1  CNT         0.000000
    578 C          15.6050    3.6517   12.0530 ca      1  CNT         0.000000
    579 C          15.2797    4.8355   12.7620 ca      1  CNT         0.000000
    580 C          14.8647    5.9910   12.0530 ca      1  CNT         0.000000
    581 C          14.3625    7.1113   12.7620 ca      1  CNT         0.000000
    582 C          13.7760    8.1899   12.0530 ca      1  CNT         0.000000
    583 C          13.1086    9.2204   12.7620 ca      1  CNT         0.000000
    584 C          12.3643   10.1968   12.0530 ca      1  CNT         0.000000
    585 C          11.5475   11.1134   12.7620 ca      1  CNT         0.000000
    586 C          10.6629   11.9647   12.0530 ca      1  CNT         0.000000
    587 C           9.7157   12.7458   12.7620 ca      1  CNT         0.000000
    588 C           8.7115   13.4522   12.0530 ca      1  CNT         0.000000
    589 C           7.6562   14.0795   12.7620 ca      1  CNT         0.000000
    590 C           6.5560   14.6243   12.0530 ca      1  CNT         0.000000
    591 C           5.4173   15.0833   12.7620 ca      1  CNT         0.000000
    592 C           4.2467   15.4537   12.0530 ca      1  CNT         0.000000
    593 C           3.0513   15.7334   12.7620 ca      1  CNT         0.000000
    594 C           1.8380   15.9208   12.0530 ca      1  CNT         0.000000
    595 C           0.6139   16.0148   12.7620 ca      1  CNT         0.000000
    596 C          -0.6139   16.0148   12.0530 ca      1  CNT         0.000000
    597 C          -1.8380   15.9208   12.7620 ca      1  CNT         0.000000
    598 C          -3.0513   15.7334   12.0530 ca      1  CNT         0.000000
    599 C          -4.2467   15.4537   12.7620 ca      1  CNT         0.000000
    600 C          -5.4173   15.0833   12.0530 ca      1  CNT         0.000000
    601 C          -6.5560   14.6243   12.7620 ca      1  CNT         0.000000
    602 C          -7.6562   14.0795   12.0530 ca      1  CNT         0.000000
    603 C          -8.7115   13.4522   12.7620 ca      1  CNT         0.000000
    604 C          -9.7157   12.7458   12.0530 ca      1  CNT         0.000000
    605 C         -10.6629   11.9647   12.7620 ca      1  CNT         0.000000
    606 C         -11.5475   11.1134   12.0530 ca      1  CNT         0.000000
    607 C         -12.3643   10.1968   12.7620 ca      1  CNT         0.000000
    608 C         -13.1086    9.2204   12.0530 ca      1  CNT         0.000000
    609 C         -13.7760    8.1899   12.7620 ca      1  CNT         0.000000
    610 C         -14.3625    7.1113   12.0530 ca      1  CNT         0.000000
    611 C         -14.8647    5.9910   12.7620 ca      1  CNT         0.000000
    612 C         -15.2797    4.8355   12.0530 ca      1  CNT         0.000000
    613 C         -15.6050    3.6517   12.7620 ca      1  CNT         0.000000
    614 C         -15.8388    2.4464   12.0530 ca      1  CNT         0.000000
    615 C         -15.9796    1.2268   12.7620 ca      1  CNT         0.000000
    616 C         -16.0266    0.0000   12.0530 ca      1  CNT         0.000000
    617 C         -15.9796   -1.2268   12.7620 ca      1  CNT         0.000000
    618 C         -15.8388   -2.4464   12.0530 ca      1  CNT         0.000000
    619 C         -15.6050   -3.6517   12.7620 ca      1  CNT         0.000000
    620 C         -15.2797   -4.8355   12.0530 ca      1  CNT         0.000000
    621 C         -14.8647   -5.9910   12.7620 ca      1  CNT         0.000000
    622 C         -14.3625   -7.1113   12.0530 ca      1  CNT         0.000000
    623 C         -13.7760   -8.1899   12.7620 ca      1  CNT         0.000000
    624 C         -13.1086   -9.2204   12.0530 ca      1  CNT         0.000000
    625 C         -12.3643  -10.1968   12.7620 ca      1  CNT         0.000000
    626 C         -11.5475  -11.1134   12.0530 ca      1  CNT         0.000000
    627 C         -10.6629  -11.9647   12.7620 ca      1  CNT         0.000000
    628 C          -9.7157  -12.7458   12.0530 ca      1  CNT         0.000000
    629 C          -8.7115  -13.4522   12.7620 ca      1  CNT         0.000000
    630 C          -7.6562  -14.0795   12.0530 ca      1  CNT         0.000000
    631 C          -6.5560  -14.6243   12.7620 ca      1  CNT         0.000000
    632 C          -5.4173  -15.0833   12.0530 ca      1  CNT         0.000000
    633 C          -4.2467  -15.4537   12.7620 ca      1  CNT         0.000000
    634 C          -3.0513  -15.7334   12.0530 ca      1  CNT         0.000000
    635 C          -1.8380  -15.9208   12.7620 ca      1  CNT         0.000000
    636 C          -0.6139  -16.0148   12.0530 ca      1  CNT         0.000000
    637 C           0.6139  -16.0148   12.7620 ca      1  CNT         0.000000
    638 C           1.8380  -15.9208   12.0530 ca      1  CNT         0.000000
    639 C           3.0513  -15.7334   12.7620 ca      1  CNT         0.000000
    640 C           4.2467  -15.4537   12.0530 ca      1  CNT         0.000000
    641 C           5.4173  -15.0833   12.7620 ca      1  CNT         0.000000
    642 C           6.5560  -14.6243   12.0530 ca      1  CNT         0.000000
    643 C           7.6562  -14.0795   12.7620 ca      1  CNT         0.000000
    644 C           8.7115  -13.4522   12.0530 ca      1  CNT         0.000000
    645 C           9.7157  -12.7458   12.7620 ca      1  CNT         0.000000
    646 C          10.6629  -11.9647   12.0530 ca      1  CNT         0.000000
    647 C          11.5475  -11.1134   12.7620 ca      1  CNT         0.000000
    648 C          12.3643  -10.1968   12.0530 ca      1  CNT         0.000000
    649 C          13.1086   -9.2204   12.7620 ca      1  CNT         0.000000
    650 C          13.7760   -8.1899   12.0530 ca      1  CNT         0.000000
    651 C          14.3625   -7.1113   12.7620 ca      1  CNT         0.000000
    652 C          14.8647   -5.9910   12.0530 ca      1  CNT         0.000000
    653 C          15.2797   -4.8355   12.7620 ca      1  CNT         0.000000
    654 C          15.6050   -3.6517   12.0530 ca      1  CNT         0.000000
    655 C          15.8388   -2.4464   12.7620 ca      1  CNT         0.000000
    656 C          15.9796   -1.2268   12.0530 ca      1  CNT         0.000000
    657 C          15.9796    1.2268   19.1430 ca      1  CNT         0.000000
    658 C          15.8388    2.4464   18.4340 ca      1  CNT         0.000000
    659 C          15.6050    3.6517   19.1430 ca      1  CNT         0.000000
    660 C          15.2797    4.8355   18.4340 ca      1  CNT         0.000000
    661 C          14.8647    5.9910   19.1430 ca      1  CNT         0.000000
    662 C          14.3625    7.1113   18.4340 ca      1  CNT         0.000000
    663 C          13.7760    8.1899   19.1430 ca      1  CNT         0.000000
    664 C          13.1086    9.2204   18.4340 ca      1  CNT         0.000000
    665 C          12.3643   10.1968   19.1430 ca      1  CNT         0.000000
    666 C          11.5475   11.1134   18.4340 ca      1  CNT         0.000000
    667 C          10.6629   11.9647   19.1430 ca      1  CNT         0.000000
    668 C           9.7157   12.7458   18.4340 ca      1  CNT         0.000000
    669 C           8.7115   13.4522   19.1430 ca      1  CNT         0.000000
    670 C           7.6562   14.0795   18.4340 ca      1  CNT         0.000000
    671 C           6.5560   14.6243   19.1430 ca      1  CNT         0.000000
    672 C           5.4173   15.0833   18.4340 ca      1  CNT         0.000000
    673 C           4.2467   15.4537   19.1430 ca      1  CNT         0.000000
    674 C           3.0513   15.7334   18.4340 ca      1  CNT         0.000000
    675 C           1.8380   15.9208   19.1430 ca      1  CNT         0.000000
    676 C           0.6139   16.0148   18.4340 ca      1  CNT         0.000000
    677 C          -0.6139   16.0148   19.1430 ca      1  CNT         0.000000
    678 C          -1.8380   15.9208   18.4340 ca      1  CNT         0.000000
    679 C          -3.0513   15.7334   19.1430 ca      1  CNT         0.000000
    680 C          -4.2467   15.4537   18.4340 ca      1  CNT         0.000000
    681 C          -5.4173   15.0833   19.1430 ca      1  CNT         0.000000
    682 C          -6.5560   14.6243   18.4340 ca      1  CNT         0.000000
    683 C          -7.6562   14.0795   19.1430 ca      1  CNT         0.000000
    684 C          -8.7115   13.4522   18.4340 ca      1  CNT         0.000000
    685 C          -9.7157   12.7458   19.1430 ca      1  CNT         0.000000
    686 C         -10.6629   11.9647   18.4340 ca      1  CNT         0.000000
    687 C         -11.5475   11.1134   19.1430 ca      1  CNT         0.000000
    688 C         -12.3643   10.1968   18.4340 ca      1  CNT         0.000000
    689 C         -13.1086    9.2204   19.1430 ca      1  CNT         0.000000
    690 C         -13.7760    8.1899   18.4340 ca      1  CNT         0.000000
    691 C         -14.3625    7.1113   19.1430 ca      1  CNT         0.000000
    692 C         -14.8647    5.9910   18.4340 ca      1  CNT         0.000000
    693 C         -15.2797    4.8355   19.1430 ca      1  CNT         0.000000
    694 C         -15.6050    3.6517   18.4340 ca      1  CNT         0.000000
    695 C         -15.8388    2.4464   19.1430 ca      1  CNT         0.000000
    696 C         -15.9796    1.2268   18.4340 ca      1  CNT         0.000000
    697 C         -16.0266   -0.0000   19.1430 ca      1  CNT         0.000000
    698 C         -15.9796   -1.2268   18.4340 ca      1  CNT         0.000000
    699 C         -15.8388   -2.4464   19.1430 ca      1  CNT         0.000000
    700 C         -15.6050   -3.6517   18.4340 ca      1  CNT         0.000000
    701 C         -15.2797   -4.8355   19.1430 ca      1  CNT         0.000000
    702 C         -14.8647   -5.9910   18.4340 ca      1  CNT         0.000000
    703 C         -14.3625   -7.1113   19.1430 ca      1  CNT         0.000000
    704 C         -13.7760   -8.1899   18.4340 ca      1  CNT         0.000000
    705 C         -13.1086   -9.2204   19.1430 ca      1  CNT         0.000000
    706 C         -12.3643  -10.1968   18.4340 ca      1  CNT         0.000000
    707 C         -11.5475  -11.1134   19.1430 ca      1  CNT         0.000000
    708 C         -10.6629  -11.9647   18.4340 ca      1  CNT         0.000000
    709 C          -9.7157  -12.7458   19.1430 ca      1  CNT         0.000000
    710 C          -8.7115  -13.4522   18.4340 ca      1  CNT         0.000000
    711 C          -7.6562  -14.0795   19.1430 ca      1  CNT         0.000000
    712 C          -6.5560  -14.6243   18.4340 ca      1  CNT         0.000000
    713 C          -5.4173  -15.0833   19.1430 ca      1  CNT         0.000000
    714 C          -4.2467  -15.4537   18.4340 ca      1  CNT         0.000000
    715 C          -3.0513  -15.7334   19.1430 ca      1  CNT         0.000000
    716 C          -1.8380  -15.9208   18.4340 ca      1  CNT         0.000000
    717 C          -0.6139  -16.0148   19.1430 ca      1  CNT         0.000000
    718 C           0.6139  -16.0148   18.4340 ca      1  CNT         0.000000
    719 C           1.8380  -15.9208   19.1430 ca      1  CNT         0.000000
    720 C           3.0513  -15.7334   18.4340 ca      1  CNT         0.000000
    721 C           4.2467  -15.4537   19.1430 ca      1  CNT         0.000000
    722 C           5.4173  -15.0833   18.4340 ca      1  CNT         0.000000
    723 C           6.5560  -14.6243   19.1430 ca      1  CNT         0.000000
    724 C           7.6562  -14.0795   18.4340 ca      1  CNT         0.000000
    725 C           8.7115  -13.4522   19.1430 ca      1  CNT         0.000000
    726 C           9.7157  -12.7458   18.4340 ca      1  CNT         0.000000
    727 C          10.6629  -11.9647   19.1430 ca      1  CNT         0.000000
    728 C          11.5475  -11.1134   18.4340 ca      1  CNT         0.000000
    729 C          12.3643  -10.1968   19.1430 ca      1  CNT         0.000000
    730 C          13.1086   -9.2204   18.4340 ca      1  CNT         0.000000
    731 C          13.7760   -8.1899   19.1430 ca      1  CNT         0.000000
    732 C          14.3625   -7.1113   18.4340 ca      1  CNT         0.000000
    733 C          14.8647   -5.9910   19.1430 ca      1  CNT         0.000000
    734 C          15.2797   -4.8355   18.4340 ca      1  CNT         0.000000
    735 C          15.6050   -3.6517   19.1430 ca      1  CNT         0.000000
    736 C          15.8388   -2.4464   18.4340 ca      1  CNT         0.000000
    737 C          15.9796   -1.2268   19.1430 ca      1  CNT         0.000000
    738 C          16.0266   -0.0000   18.4340 ca      1  CNT         0.000000
    739 C          16.0266    0.0000   17.0160 ca      1  CNT         0.000000
    740 C          15.9796    1.2268   16.3070 ca      1  CNT         0.000000
    741 C          15.8388    2.4464   17.0160 ca      1  CNT         0.000000
    742 C          15.6050    3.6517   16.3070 ca      1  CNT         0.000000
    743 C          15.2797    4.8355   17.0160 ca      1  CNT         0.000000
    744 C          14.8647    5.9910   16.3070 ca      1  CNT         0.000000
    745 C          14.3625    7.1113   17.0160 ca      1  CNT         0.000000
    746 C          13.7760    8.1899   16.3070 ca      1  CNT         0.000000
    747 C          13.1086    9.2204   17.0160 ca      1  CNT         0.000000
    748 C          12.3643   10.1968   16.3070 ca      1  CNT         0.000000
    749 C          11.5475   11.1134   17.0160 ca      1  CNT         0.000000
    750 C          10.6629   11.9647   16.3070 ca      1  CNT         0.000000
    751 C           9.7157   12.7458   17.0160 ca      1  CNT         0.000000
    752 C           8.7115   13.4522   16.3070 ca      1  CNT         0.000000
    753 C           7.6562   14.0795   17.0160 ca      1  CNT         0.000000
    754 C           6.5560   14.6243   16.3070 ca      1  CNT         0.000000
    755 C           5.4173   15.0833   17.0160 ca      1  CNT         0.000000
    756 C           4.2467   15.4537   16.3070 ca      1  CNT         0.000000
    757 C           3.0513   15.7334   17.0160 ca      1  CNT         0.000000
    758 C           1.8380   15.9208   16.3070 ca      1  CNT         0.000000
    759 C           0.6139   16.0148   17.0160 ca      1  CNT         0.000000
    760 C          -0.6139   16.0148   16.3070 ca      1  CNT         0.000000
    761 C          -1.8380   15.9208   17.0160 ca      1  CNT         0.000000
    762 C          -3.0513   15.7334   16.3070 ca      1  CNT         0.000000
    763 C          -4.2467   15.4537   17.0160 ca      1  CNT         0.000000
    764 C          -5.4173   15.0833   16.3070 ca      1  CNT         0.000000
    765 C          -6.5560   14.6243   17.0160 ca      1  CNT         0.000000
    766 C          -7.6562   14.0795   16.3070 ca      1  CNT         0.000000
    767 C          -8.7115   13.4522   17.0160 ca      1  CNT         0.000000
    768 C          -9.7157   12.7458   16.3070 ca      1  CNT         0.000000
    769 C         -10.6629   11.9647   17.0160 ca      1  CNT         0.000000
    770 C         -11.5475   11.1134   16.3070 ca      1  CNT         0.000000
    771 C         -12.3643   10.1968   17.0160 ca      1  CNT         0.000000
    772 C         -13.1086    9.2204   16.3070 ca      1  CNT         0.000000
    773 C         -13.7760    8.1899   17.0160 ca      1  CNT         0.000000
    774 C         -14.3625    7.1113   16.3070 ca      1  CNT         0.000000
    775 C         -14.8647    5.9910   17.0160 ca      1  CNT         0.000000
    776 C         -15.2797    4.8355   16.3070 ca      1  CNT         0.000000
    777 C         -15.6050    3.6517   17.0160 ca      1  CNT         0.000000
    778 C         -15.8388    2.4464   16.3070 ca      1  CNT         0.000000
    779 C         -15.9796    1.2268   17.0160 ca      1  CNT         0.000000
    780 C         -16.0266    0.0000   16.3070 ca      1  CNT         0.000000
    781 C         -15.9796   -1.2268   17.0160 ca      1  CNT         0.000000
    782 C         -15.8388   -2.4464   16.3070 ca      1  CNT         0.000000
    783 C         -15.6050   -3.6517   17.0160 ca      1  CNT         0.000000
    784 C         -15.2797   -4.8355   16.3070 ca      1  CNT         0.000000
    785 C         -14.8647   -5.9910   17.0160 ca      1  CNT         0.000000
    786 C         -14.3625   -7.1113   16.3070 ca      1  CNT         0.000000
    787 C         -13.7760   -8.1899   17.0160 ca      1  CNT         0.000000
    788 C         -13.1086   -9.2204   16.3070 ca      1  CNT         0.000000
    789 C         -12.3643  -10.1968   17.0160 ca      1  CNT         0.000000
    790 C         -11.5475  -11.1134   16.3070 ca      1  CNT         0.000000
    791 C         -10.6629  -11.9647   17.0160 ca      1  CNT         0.000000
    792 C          -9.7157  -12.7458   16.3070 ca      1  CNT         0.000000
    793 C          -8.7115  -13.4522   17.0160 ca      1  CNT         0.000000
    794 C          -7.6562  -14.0795   16.3070 ca      1  CNT         0.000000
    795 C          -6.5560  -14.6243   17.0160 ca      1  CNT         0.000000
    796 C          -5.4173  -15.0833   16.3070 ca      1  CNT         0.000000
    797 C          -4.2467  -15.4537   17.0160 ca      1  CNT         0.000000
    798 C          -3.0513  -15.7334   16.3070 ca      1  CNT         0.000000
    799 C          -1.8380  -15.9208   17.0160 ca      1  CNT         0.000000
    800 C          -0.6139  -16.0148   16.3070 ca      1  CNT         0.000000
    801 C           0.6139  -16.0148   17.0160 ca      1  CNT         0.000000
    802 C           1.8380  -15.9208   16.3070 ca      1  CNT         0.000000
    803 C           3.0513  -15.7334   17.0160 ca      1  CNT         0.000000
    804 C           4.2467  -15.4537   16.3070 ca      1  CNT         0.000000
    805 C           5.4173  -15.0833   17.0160 ca      1  CNT         0.000000
    806 C           6.5560  -14.6243   16.3070 ca      1  CNT         0.000000
    807 C           7.6562  -14.0795   17.0160 ca      1  CNT         0.000000
    808 C           8.7115  -13.4522   16.3070 ca      1  CNT         0.000000
    809 C           9.7157  -12.7458   17.0160 ca      1  CNT         0.000000
    810 C          10.6629  -11.9647   16.3070 ca      1  CNT         0.000000
    811 C          11.5475  -11.1134   17.0160 ca      1  CNT         0.000000
    812 C          12.3643  -10.1968   16.3070 ca      1  CNT         0.000000
    813 C          13.1086   -9.2204   17.0160 ca      1  CNT         0.000000
    814 C          13.7760   -8.1899   16.3070 ca      1  CNT         0.000000
    815 C          14.3625   -7.1113   17.0160 ca      1  CNT         0.000000
    816 C          14.8647   -5.9910   16.3070 ca      1  CNT         0.000000
    817 C          15.2797   -4.8355   17.0160 ca      1  CNT         0.000000
    818 C          15.6050   -3.6517   16.3070 ca      1  CNT         0.000000
    819 C          15.8388   -2.4464   17.0160 ca      1  CNT         0.000000
    820 C          15.9796   -1.2268   16.3070 ca      1  CNT         0.000000
    821 C          15.9796    1.2268   23.3970 ca      1  CNT         0.000000
    822 C          15.8388    2.4464   22.6880 ca      1  CNT         0.000000
    823 C          15.6050    3.6517   23.3970 ca      1  CNT         0.000000
    824 C          15.2797    4.8355   22.6880 ca      1  CNT         0.000000
    825 C          14.8647    5.9910   23.3970 ca      1  CNT         0.000000
    826 C          14.3625    7.1113   22.6880 ca      1  CNT         0.000000
    827 C          13.7760    8.1899   23.3970 ca      1  CNT         0.000000
    828 C          13.1086    9.2204   22.6880 ca      1  CNT         0.000000
    829 C          12.3643   10.1968   23.3970 ca      1  CNT         0.000000
    830 C          11.5475   11.1134   22.6880 ca      1  CNT         0.000000
    831 C          10.6629   11.9647   23.3970 ca      1  CNT         0.000000
    832 C           9.7157   12.7458   22.6880 ca      1  CNT         0.000000
    833 C           8.7115   13.4522   23.3970 ca      1  CNT         0.000000
    834 C           7.6562   14.0795   22.6880 ca      1  CNT         0.000000
    835 C           6.5560   14.6243   23.3970 ca      1  CNT         0.000000
    836 C           5.4173   15.0833   22.6880 ca      1  CNT         0.000000
    837 C           4.2467   15.4537   23.3970 ca      1  CNT         0.000000
    838 C           3.0513   15.7334   22.6880 ca      1  CNT         0.000000
    839 C           1.8380   15.9208   23.3970 ca      1  CNT         0.000000
    840 C           0.6139   16.0148   22.6880 ca      1  CNT         0.000000
    841 C          -0.6139   16.0148   23.3970 ca      1  CNT         0.000000
    842 C          -1.8380   15.9208   22.6880 ca      1  CNT         0.000000
    843 C          -3.0513   15.7334   23.3970 ca      1  CNT         0.000000
    844 C          -4.2467   15.4537   22.6880 ca      1  CNT         0.000000
    845 C          -5.4173   15.0833   23.3970 ca      1  CNT         0.000000
    846 C          -6.5560   14.6243   22.6880 ca      1  CNT         0.000000
    847 C          -7.6562   14.0795   23.3970 ca      1  CNT         0.000000
    848 C          -8.7115   13.4522   22.6880 ca      1  CNT         0.000000
    849 C          -9.7157   12.7458   23.3970 ca      1  CNT         0.000000
    850 C         -10.6629   11.9647   22.6880 ca      1  CNT         0.000000
    851 C         -11.5475   11.1134   23.3970 ca      1  CNT         0.000000
    852 C         -12.3643   10.1968   22.6880 ca      1  CNT         0.000000
    853 C         -13.1086    9.2204   23.3970 ca      1  CNT         0.000000
    854 C         -13.7760    8.1899   22.6880 ca      1  CNT         0.000000
    855 C         -14.3625    7.1113   23.3970 ca      1  CNT         0.000000
    856 C         -14.8647    5.9910   22.6880 ca      1  CNT         0.000000
    857 C         -15.2797    4.8355   23.3970 ca      1  CNT         0.000000
    858 C         -15.6050    3.6517   22.6880 ca      1  CNT         0.000000
    859 C         -15.8388    2.4464   23.3970 ca      1  CNT         0.000000
    860 C         -15.9796    1.2268   22.6880 ca      1  CNT         0.000000
    861 C         -16.0266   -0.0000   23.3970 ca      1  CNT         0.000000
    862 C         -15.9796   -1.2268   22.6880 ca      1  CNT         0.000000
    863 C         -15.8388   -2.4464   23.3970 ca      1  CNT         0.000000
    864 C         -15.6050   -3.6517   22.6880 ca      1  CNT         0.000000
    865 C         -15.2797   -4.8355   23.3970 ca      1  CNT         0.000000
    866 C         -14.8647   -5.9910   22.6880 ca      1  CNT         0.000000
    867 C         -14.3625   -7.1113   23.3970 ca      1  CNT         0.000000
    868 C         -13.7760   -8.1899   22.6880 ca      1  CNT         0.000000
    869 C         -13.1086   -9.2204   23.3970 ca      1  CNT         0.000000
    870 C         -12.3643  -10.1968   22.6880 ca      1  CNT         0.000000
    871 C         -11.5475  -11.1134   23.3970 ca      1  CNT         0.000000
    872 C         -10.6629  -11.9647   22.6880 ca      1  CNT         0.000000
    873 C          -9.7157  -12.7458   23.3970 ca      1  CNT         0.000000
    874 C          -8.7115  -13.4522   22.6880 ca      1  CNT         0.000000
    875 C          -7.6562  -14.0795   23.3970 ca      1  CNT         0.000000
    876 C          -6.5560  -14.6243   22.6880 ca      1  CNT         0.000000
    877 C          -5.4173  -15.0833   23.3970 ca      1  CNT         0.000000
    878 C          -4.2467  -15.4537   22.6880 ca      1  CNT         0.000000
    879 C          -3.0513  -15.7334   23.3970 ca      1  CNT         0.000000
    880 C          -1.8380  -15.9208   22.6880 ca      1  CNT         0.000000
    881 C          -0.6139  -16.0148   23.3970 ca      1  CNT         0.000000
    882 C           0.6139  -16.0148   22.6880 ca      1  CNT         0.000000
    883 C           1.8380  -15.9208   23.3970 ca      1  CNT         0.000000
    884 C           3.0513  -15.7334   22.6880 ca      1  CNT         0.000000
    885 C           4.2467  -15.4537   23.3970 ca      1  CNT         0.000000
    886 C           5.4173  -15.0833   22.6880 ca      1  CNT         0.000000
    887 C           6.5560  -14.6243   23.3970 ca      1  CNT         0.000000
    888 C           7.6562  -14.0795   22.6880 ca      1  CNT         0.000000
    889 C           8.7115  -13.4522   23.3970 ca      1  CNT         0.000000
    890 C           9.7157  -12.7458   22.6880 ca      1  CNT         0.000000
    891 C          10.6629  -11.9647   23.3970 ca      1  CNT         0.000000
    892 C          11.5475  -11.1134   22.6880 ca      1  CNT         0.000000
    893 C          12.3643  -10.1968   23.3970 ca      1  CNT         0.000000
    894 C          13.1086   -9.2204   22.6880 ca      1  CNT         0.000000
    895 C          13.7760   -8.1899   23.3970 ca      1  CNT         0.000000
    896 C          14.3625   -7.1113   22.6880 ca      1  CNT         0.000000
    897 C          14.8647   -5.9910   23.3970 ca      1  CNT         0.000000
    898 C          15.2797   -4.8355   22.6880 ca      1  CNT         0.000000
    899 C          15.6050   -3.6517   23.3970 ca      1  CNT         0.000000
    900 C          15.8388   -2.4464   22.6880 ca      1  CNT         0.000000
    901 C          15.9796   -1.2268   23.3970 ca      1  CNT         0.000000
    902 C          16.0266   -0.0000   22.6880 ca      1  CNT         0.000000
    903 C          16.0266    0.0000   21.2700 ca      1  CNT         0.000000
    904 C          15.9796    1.2268   20.5610 ca      1  CNT         0.000000
    905 C          15.8388    2.4464   21.2700 ca      1  CNT         0.000000
    906 C          15.6050    3.6517   20.5610 ca      1  CNT         0.000000
    907 C          15.2797    4.8355   21.2700 ca      1  CNT         0.000000
    908 C          14.8647    5.9910   20.5610 ca      1  CNT         0.000000
    909 C          14.3625    7.1113   21.2700 ca      1  CNT         0.000000
    910 C          13.7760    8.1899   20.5610 ca      1  CNT         0.000000
    911 C          13.1086    9.2204   21.2700 ca      1  CNT         0.000000
    912 C          12.3643   10.1968   20.5610 ca      1  CNT         0.000000
    913 C          11.5475   11.1134   21.2700 ca      1  CNT         0.000000
    914 C          10.6629   11.9647   20.5610 ca      1  CNT         0.000000
    915 C           9.7157   12.7458   21.2700 ca      1  CNT         0.000000
    916 C           8.7115   13.4522   20.5610 ca      1  CNT         0.000000
    917 C           7.6562   14.0795   21.2700 ca      1  CNT         0.000000
    918 C           6.5560   14.6243   20.5610 ca      1  CNT         0.000000
    919 C           5.4173   15.0833   21.2700 ca      1  CNT         0.000000
    920 C           4.2467   15.4537   20.5610 ca      1  CNT         0.000000
    921 C           3.0513   15.7334   21.2700 ca      1  CNT         0.000000
    922 C           1.8380   15.9208   20.5610 ca      1  CNT         0.000000
    923 C           0.6139   16.0148   21.2700 ca      1  CNT         0.000000
    924 C          -0.6139   16.0148   20.5610 ca      1  CNT         0.000000
    925 C          -1.8380   15.9208   21.2700 ca      1  CNT         0.000000
    926 C          -3.0513   15.7334   20.5610 ca      1  CNT         0.000000
    927 C          -4.2467   15.4537   21.2700 ca      1  CNT         0.000000
    928 C          -5.4173   15.0833   20.5610 ca      1  CNT         0.000000
    929 C          -6.5560   14.6243   21.2700 ca      1  CNT         0.000000
    930 C          -7.6562   14.0795   20.5610 ca      1  CNT         0.000000
    931 C          -8.7115   13.4522   21.2700 ca      1  CNT         0.000000
    932 C          -9.7157   12.7458   20.5610 ca      1  CNT         0.000000
    933 C         -10.6629   11.9647   21.2700 ca      1  CNT         0.000000
    934 C         -11.5475   11.1134   20.5610 ca      1  CNT         0.000000
    935 C         -12.3643   10.1968   21.2700 ca      1  CNT         0.000000
    936 C         -13.1086    9.2204   20.5610 ca      1  CNT         0.000000
    937 C         -13.7760    8.1899   21.2700 ca      1  CNT         0.000000
    938 C         -14.3625    7.1113   20.5610 ca      1  CNT         0.000000
    939 C         -14.8647    5.9910   21.2700 ca      1  CNT         0.000000
    940 C         -15.2797    4.8355   20.5610 ca      1  CNT         0.000000
    941 C         -15.6050    3.6517   21.2700 ca      1  CNT         0.000000
    942 C         -15.8388    2.4464   20.5610 ca      1  CNT         0.000000
    943 C         -15.9796    1.2268   21.2700 ca      1  CNT         0.000000
    944 C         -16.0266    0.0000   20.5610 ca      1  CNT         0.000000
    945 C         -15.9796   -1.2268   21.2700 ca      1  CNT         0.000000
    946 C         -15.8388   -2.4464   20.5610 ca      1  CNT         0.000000
    947 C         -15.6050   -3.6517   21.2700 ca      1  CNT         0.000000
    948 C         -15.2797   -4.8355   20.5610 ca      1  CNT         0.000000
    949 C         -14.8647   -5.9910   21.2700 ca      1  CNT         0.000000
    950 C         -14.3625   -7.1113   20.5610 ca      1  CNT         0.000000
    951 C         -13.7760   -8.1899   21.2700 ca      1  CNT         0.000000
    952 C         -13.1086   -9.2204   20.5610 ca      1  CNT         0.000000
    953 C         -12.3643  -10.1968   21.2700 ca      1  CNT         0.000000
    954 C         -11.5475  -11.1134   20.5610 ca      1  CNT         0.000000
    955 C         -10.6629  -11.9647   21.2700 ca      1  CNT         0.000000
    956 C          -9.7157  -12.7458   20.5610 ca      1  CNT         0.000000
    957 C          -8.7115  -13.4522   21.2700 ca      1  CNT         0.000000
    958 C          -7.6562  -14.0795   20.5610 ca      1  CNT         0.000000
    959 C          -6.5560  -14.6243   21.2700 ca      1  CNT         0.000000
    960 C          -5.4173  -15.0833   20.5610 ca      1  CNT         0.000000
    961 C          -4.2467  -15.4537   21.2700 ca      1  CNT         0.000000
    962 C          -3.0513  -15.7334   20.5610 ca      1  CNT         0.000000
    963 C          -1.8380  -15.9208   21.2700 ca      1  CNT         0.000000
    964 C          -0.6139  -16.0148   20.5610 ca      1  CNT         0.000000
    965 C           0.6139  -16.0148   21.2700 ca      1  CNT         0.000000
    966 C           1.8380  -15.9208   20.5610 ca      1  CNT         0.000000
    967 C           3.0513  -15.7334   21.2700 ca      1  CNT         0.000000
    968 C           4.2467  -15.4537   20.5610 ca      1  CNT         0.000000
    969 C           5.4173  -15.0833   21.2700 ca      1  CNT         0.000000
    970 C           6.5560  -14.6243   20.5610 ca      1  CNT         0.000000
    971 C           7.6562  -14.0795   21.2700 ca      1  CNT         0.000000
    972 C           8.7115  -13.4522   20.5610 ca      1  CNT         0.000000
    973 C           9.7157  -12.7458   21.2700 ca      1  CNT         0.000000
    974 C          10.6629  -11.9647   20.5610 ca      1  CNT         0.000000
    975 C          11.5475  -11.1134   21.2700 ca      1  CNT         0.000000
    976 C          12.3643  -10.1968   20.5610 ca      1  CNT         0.000000
    977 C          13.1086   -9.2204   21.2700 ca      1  CNT         0.000000
    978 C          13.7760   -8.1899   20.5610 ca      1  CNT         0.000000
    979 C          14.3625   -7.1113   21.2700 ca      1  CNT         0.000000
    980 C          14.8647   -5.9910   20.5610 ca      1  CNT         0.000000
    981 C          15.2797   -4.8355   21.2700 ca      1  CNT         0.000000
    982 C          15.6050   -3.6517   20.5610 ca      1  CNT         0.000000
    983 C          15.8388   -2.4464   21.2700 ca      1  CNT         0.000000
    984 C          15.9796   -1.2268   20.5610 ca      1  CNT         0.000000
    985 C          15.9796    1.2268   27.6510 ca      1  CNT         0.000000
    986 C          15.8388    2.4464   26.9420 ca      1  CNT         0.000000
    987 C          15.6050    3.6517   27.6510 ca      1  CNT         0.000000
    988 C          15.2797    4.8355   26.9420 ca      1  CNT         0.000000
    989 C          14.8647    5.9910   27.6510 ca      1  CNT         0.000000
    990 C          14.3625    7.1113   26.9420 ca      1  CNT         0.000000
    991 C          13.7760    8.1899   27.6510 ca      1  CNT         0.000000
    992 C          13.1086    9.2204   26.9420 ca      1  CNT         0.000000
    993 C          12.3643   10.1968   27.6510 ca      1  CNT         0.000000
    994 C          11.5475   11.1134   26.9420 ca      1  CNT         0.000000
    995 C          10.6629   11.9647   27.6510 ca      1  CNT         0.000000
    996 C           9.7157   12.7458   26.9420 ca      1  CNT         0.000000
    997 C           8.7115   13.4522   27.6510 ca      1  CNT         0.000000
    998 C           7.6562   14.0795   26.9420 ca      1  CNT         0.000000
    999 C           6.5560   14.6243   27.6510 ca      1  CNT         0.000000
   1000 C           5.4173   15.0833   26.9420 ca      1  CNT         0.000000
   1001 C           4.2467   15.4537   27.6510 ca      1  CNT         0.000000
   1002 C           3.0513   15.7334   26.9420 ca      1  CNT         0.000000
   1003 C           1.8380   15.9208   27.6510 ca      1  CNT         0.000000
   1004 C           0.6139   16.0148   26.9420 ca      1  CNT         0.000000
   1005 C          -0.6139   16.0148   27.6510 ca      1  CNT         0.000000
   1006 C          -1.8380   15.9208   26.9420 ca      1  CNT         0.000000
   1007 C          -3.0513   15.7334   27.6510 ca      1  CNT         0.000000
   1008 C          -4.2467   15.4537   26.9420 ca      1  CNT         0.000000
   1009 C          -5.4173   15.0833   27.6510 ca      1  CNT         0.000000
   1010 C          -6.5560   14.6243   26.9420 ca      1  CNT         0.000000
   1011 C          -7.6562   14.0795   27.6510 ca      1  CNT         0.000000
   1012 C          -8.7115   13.4522   26.9420 ca      1  CNT         0.000000
   1013 C          -9.7157   12.7458   27.6510 ca      1  CNT         0.000000
   1014 C         -10.6629   11.9647   26.9420 ca      1  CNT         0.000000
   1015 C         -11.5475   11.1134   27.6510 ca      1  CNT         0.000000
   1016 C         -12.3643   10.1968   26.9420 ca      1  CNT         0.000000
   1017 C         -13.1086    9.2204   27.6510 ca      1  CNT         0.000000
   1018 C         -13.7760    8.1899   26.9420 ca      1  CNT         0.000000
   1019 C         -14.3625    7.1113   27.6510 ca      1  CNT         0.000000
   1020 C         -14.8647    5.9910   26.9420 ca      1  CNT         0.000000
   1021 C         -15.2797    4.8355   27.6510 ca      1  CNT         0.000000
   1022 C         -15.6050    3.6517   26.9420 ca      1  CNT         0.000000
   1023 C         -15.8388    2.4464   27.6510 ca      1  CNT         0.000000
   1024 C         -15.9796    1.2268   26.9420 ca      1  CNT         0.000000
   1025 C         -16.0266   -0.0000   27.6510 ca      1  CNT         0.000000
   1026 C         -15.9796   -1.2268   26.9420 ca      1  CNT         0.000000
   1027 C         -15.8388   -2.4464   27.6510 ca      1  CNT         0.000000
   1028 C         -15.6050   -3.6517   26.9420 ca      1  CNT         0.000000
   1029 C         -15.2797   -4.8355   27.6510 ca      1  CNT         0.000000
   1030 C         -14.8647   -5.9910   26.9420 ca      1  CNT         0.000000
   1031 C         -14.3625   -7.1113   27.6510 ca      1  CNT         0.000000
   1032 C         -13.7760   -8.1899   26.9420 ca      1  CNT         0.000000
   1033 C         -13.1086   -9.2204   27.6510 ca      1  CNT         0.000000
   1034 C         -12.3643  -10.1968   26.9420 ca      1  CNT         0.000000
   1035 C         -11.5475  -11.1134   27.6510 ca      1  CNT         0.000000
   1036 C         -10.6629  -11.9647   26.9420 ca      1  CNT         0.000000
   1037 C          -9.7157  -12.7458   27.6510 ca      1  CNT         0.000000
   1038 C          -8.7115  -13.4522   26.9420 ca      1  CNT         0.000000
   1039 C          -7.6562  -14.0795   27.6510 ca      1  CNT         0.000000
   1040 C          -6.5560  -14.6243   26.9420 ca      1  CNT         0.000000
   1041 C          -5.4173  -15.0833   27.6510 ca      1  CNT         0.000000
   1042 C          -4.2467  -15.4537   26.9420 ca      1  CNT         0.000000
   1043 C          -3.0513  -15.7334   27.6510 ca      1  CNT         0.000000
   1044 C          -1.8380  -15.9208   26.9420 ca      1  CNT         0.000000
   1045 C          -0.6139  -16.0148   27.6510 ca      1  CNT         0.000000
   1046 C           0.6139  -16.0148   26.9420 ca      1  CNT         0.000000
   1047 C           1.8380  -15.9208   27.6510 ca      1  CNT         0.000000
   1048 C           3.0513  -15.7334   26.9420 ca      1  CNT         0.000000
   1049 C           4.2467  -15.4537   27.6510 ca      1  CNT         0.000000
   1050 C           5.4173  -15.0833   26.9420 ca      1  CNT         0.000000
   1051 C           6.5560  -14.6243   27.6510 ca      1  CNT         0.000000
   1052 C           7.6562  -14.0795   26.9420 ca      1  CNT         0.000000
   1053 C           8.7115  -13.4522   27.6510 ca      1  CNT         0.000000
   1054 C           9.7157  -12.7458   26.9420 ca      1  CNT         0.000000
   1055 C          10.6629  -11.9647   27.6510 ca      1  CNT         0.000000
   1056 C          11.5475  -11.1134   26.9420 ca      1  CNT         0.000000
   1057 C          12.3643  -10.1968   27.6510 ca      1  CNT         0.000000
   1058 C          13.1086   -9.2204   26.9420 ca      1  CNT         0.000000
   1059 C          13.7760   -8.1899   27.6510 ca      1  CNT         0.000000
   1060 C          14.3625   -7.1113   26.9420 ca      1  CNT         0.000000
   1061 C          14.8647   -5.9910   27.6510 ca      1  CNT         0.000000
   1062 C          15.2797   -4.8355   26.9420 ca      1  CNT         0.000000
   1063 C          15.6050   -3.6517   27.6510 ca      1  CNT         0.000000
   1064 C          15.8388   -2.4464   26.9420 ca      1  CNT         0.000000
   1065 C          15.9796   -1.2268   27.6510 ca      1  CNT         0.000000
   1066 C          16.0266   -0.0000   26.9420 ca      1  CNT         0.000000
   1067 C          16.0266    0.0000   25.5240 ca      1  CNT         0.000000
   1068 C          15.9796    1.2268   24.8150 ca      1  CNT         0.000000
   1069 C          15.8388    2.4464   25.5240 ca      1  CNT         0.000000
   1070 C          15.6050    3.6517   24.8150 ca      1  CNT         0.000000
   1071 C          15.2797    4.8355   25.5240 ca      1  CNT         0.000000
   1072 C          14.8647    5.9910   24.8150 ca      1  CNT         0.000000
   1073 C          14.3625    7.1113   25.5240 ca      1  CNT         0.000000
   1074 C          13.7760    8.1899   24.8150 ca      1  CNT         0.000000
   1075 C          13.1086    9.2204   25.5240 ca      1  CNT         0.000000
   1076 C          12.3643   10.1968   24.8150 ca      1  CNT         0.000000
   1077 C          11.5475   11.1134   25.5240 ca      1  CNT         0.000000
   1078 C          10.6629   11.9647   24.8150 ca      1  CNT         0.000000
   1079 C           9.7157   12.7458   25.5240 ca      1  CNT         0.000000
   1080 C           8.7115   13.4522   24.8150 ca      1  CNT         0.000000
   1081 C           7.6562   14.0795   25.5240 ca      1  CNT         0.000000
   1082 C           6.5560   14.6243   24.8150 ca      1  CNT         0.000000
   1083 C           5.4173   15.0833   25.5240 ca      1  CNT         0.000000
   1084 C           4.2467   15.4537   24.8150 ca      1  CNT         0.000000
   1085 C           3.0513   15.7334   25.5240 ca      1  CNT         0.000000
   1086 C           1.8380   15.9208   24.8150 ca      1  CNT         0.000000
   1087 C           0.6139   16.0148   25.5240 ca      1  CNT         0.000000
   1088 C          -0.6139   16.0148   24.8150 ca      1  CNT         0.000000
   1089 C          -1.8380   15.9208   25.5240 ca      1  CNT         0.000000
   1090 C          -3.0513   15.7334   24.8150 ca      1  CNT         0.000000
   1091 C          -4.2467   15.4537   25.5240 ca      1  CNT         0.000000
   1092 C          -5.4173   15.0833   24.8150 ca      1  CNT         0.000000
   1093 C          -6.5560   14.6243   25.5240 ca      1  CNT         0.000000
   1094 C          -7.6562   14.0795   24.8150 ca      1  CNT         0.000000
   1095 C          -8.7115   13.4522   25.5240 ca      1  CNT         0.000000
   1096 C          -9.7157   12.7458   24.8150 ca      1  CNT         0.000000
   1097 C         -10.6629   11.9647   25.5240 ca      1  CNT         0.000000
   1098 C         -11.5475   11.1134   24.8150 ca      1  CNT         0.000000
   1099 C         -12.3643   10.1968   25.5240 ca      1  CNT         0.000000
   1100 C         -13.1086    9.2204   24.8150 ca      1  CNT         0.000000
   1101 C         -13.7760    8.1899   25.5240 ca      1  CNT         0.000000
   1102 C         -14.3625    7.1113   24.8150 ca      1  CNT         0.000000
   1103 C         -14.8647    5.9910   25.5240 ca      1  CNT         0.000000
   1104 C         -15.2797    4.8355   24.8150 ca      1  CNT         0.000000
   1105 C         -15.6050    3.6517   25.5240 ca      1  CNT         0.000000
   1106 C         -15.8388    2.4464   24.8150 ca      1  CNT         0.000000
   1107 C         -15.9796    1.2268   25.5240 ca      1  CNT         0.000000
   1108 C         -16.0266    0.0000   24.8150 ca      1  CNT         0.000000
   1109 C         -15.9796   -1.2268   25.5240 ca      1  CNT         0.000000
   1110 C         -15.8388   -2.4464   24.8150 ca      1  CNT         0.000000
   1111 C         -15.6050   -3.6517   25.5240 ca      1  CNT         0.000000
   1112 C         -15.2797   -4.8355   24.8150 ca      1  CNT         0.000000
   1113 C         -14.8647   -5.9910   25.5240 ca      1  CNT         0.000000
   1114 C         -14.3625   -7.1113   24.8150 ca      1  CNT         0.000000
   1115 C         -13.7760   -8.1899   25.5240 ca      1  CNT         0.000000
   1116 C         -13.1086   -9.2204   24.8150 ca      1  CNT         0.000000
   1117 C         -12.3643  -10.1968   25.5240 ca      1  CNT         0.000000
   1118 C         -11.5475  -11.1134   24.8150 ca      1  CNT         0.000000
   1119 C         -10.6629  -11.9647   25.5240 ca      1  CNT         0.000000
   1120 C          -9.7157  -12.7458   24.8150 ca      1  CNT         0.000000
   1121 C          -8.7115  -13.4522   25.5240 ca      1  CNT         0.000000
   1122 C          -7.6562  -14.0795   24.8150 ca      1  CNT         0.000000
   1123 C          -6.5560  -14.6243   25.5240 ca      1  CNT         0.000000
   1124 C          -5.4173  -15.0833   24.8150 ca      1  CNT         0.000000
   1125 C          -4.2467  -15.4537   25.5240 ca      1  CNT         0.000000
   1126 C          -3.0513  -15.7334   24.8150 ca      1  CNT         0.000000
   1127 C          -1.8380  -15.9208   25.5240 ca      1  CNT         0.000000
   1128 C          -0.6139  -16.0148   24.8150 ca      1  CNT         0.000000
   1129 C           0.6139  -16.0148   25.5240 ca      1  CNT         0.000000
   1130 C           1.8380  -15.9208   24.8150 ca      1  CNT         0.000000
   1131 C           3.0513  -15.7334   25.5240 ca      1  CNT         0.000000
   1132 C           4.2467  -15.4537   24.8150 ca      1  CNT         0.000000
   1133 C           5.4173  -15.0833   25.5240 ca      1  CNT         0.000000
   1134 C           6.5560  -14.6243   24.8150 ca      1  CNT         0.000000
   1135 C           7.6562  -14.0795   25.5240 ca      1  CNT         0.000000
   1136 C           8.7115  -13.4522   24.8150 ca      1  CNT         0.000000
   1137 C           9.7157  -12.7458   25.5240 ca      1  CNT         0.000000
   1138 C          10.6629  -11.9647   24.8150 ca      1  CNT         0.000000
   1139 C          11.5475  -11.1134   25.5240 ca      1  CNT         0.000000
   1140 C          12.3643  -10.1968   24.8150 ca      1  CNT         0.000000
   1141 C          13.1086   -9.2204   25.5240 ca      1  CNT         0.000000
   1142 C          13.7760   -8.1899   24.8150 ca      1  CNT         0.000000
   1143 C          14.3625   -7.1113   25.5240 ca      1  CNT         0.000000
   1144 C          14.8647   -5.9910   24.8150 ca      1  CNT         0.000000
   1145 C          15.2797   -4.8355   25.5240 ca      1  CNT         0.000000
   1146 C          15.6050   -3.6517   24.8150 ca      1  CNT         0.000000
   1147 C          15.8388   -2.4464   25.5240 ca      1  CNT         0.000000
   1148 C          15.9796   -1.2268   24.8150 ca      1  CNT         0.000000
   1149 C          15.9796    1.2268   31.9050 ca      1  CNT         0.000000
   1150 C          15.8388    2.4464   31.1960 ca      1  CNT         0.000000
   1151 C          15.6050    3.6517   31.9050 ca      1  CNT         0.000000
   1152 C          15.2797    4.8355   31.1960 ca      1  CNT         0.000000
   1153 C          14.8647    5.9910   31.9050 ca      1  CNT         0.000000
   1154 C          14.3625    7.1113   31.1960 ca      1  CNT         0.000000
   1155 C          13.7760    8.1899   31.9050 ca      1  CNT         0.000000
   1156 C          13.1086    9.2204   31.1960 ca      1  CNT         0.000000
   1157 C          12.3643   10.1968   31.9050 ca      1  CNT         0.000000
   1158 C          11.5475   11.1134   31.1960 ca      1  CNT         0.000000
   1159 C          10.6629   11.9647   31.9050 ca      1  CNT         0.000000
   1160 C           9.7157   12.7458   31.1960 ca      1  CNT         0.000000
   1161 C           8.7115   13.4522   31.9050 ca      1  CNT         0.000000
   1162 C           7.6562   14.0795   31.1960 ca      1  CNT         0.000000
   1163 C           6.5560   14.6243   31.9050 ca      1  CNT         0.000000
   1164 C           5.4173   15.0833   31.1960 ca      1  CNT         0.000000
   1165 C           4.2467   15.4537   31.9050 ca      1  CNT         0.000000
   1166 C           3.0513   15.7334   31.1960 ca      1  CNT         0.000000
   1167 C           1.8380   15.9208   31.9050 ca      1  CNT         0.000000
   1168 C           0.6139   16.0148   31.1960 ca      1  CNT         0.000000
   1169 C          -0.6139   16.0148   31.9050 ca      1  CNT         0.000000
   1170 C          -1.8380   15.9208   31.1960 ca      1  CNT         0.000000
   1171 C          -3.0513   15.7334   31.9050 ca      1  CNT         0.000000
   1172 C          -4.2467   15.4537   31.1960 ca      1  CNT         0.000000
   1173 C          -5.4173   15.0833   31.9050 ca      1  CNT         0.000000
   1174 C          -6.5560   14.6243   31.1960 ca      1  CNT         0.000000
   1175 C          -7.6562   14.0795   31.9050 ca      1  CNT         0.000000
   1176 C          -8.7115   13.4522   31.1960 ca      1  CNT         0.000000
   1177 C          -9.7157   12.7458   31.9050 ca      1  CNT         0.000000
   1178 C         -10.6629   11.9647   31.1960 ca      1  CNT         0.000000
   1179 C         -11.5475   11.1134   31.9050 ca      1  CNT         0.000000
   1180 C         -12.3643   10.1968   31.1960 ca      1  CNT         0.000000
   1181 C         -13.1086    9.2204   31.9050 ca      1  CNT         0.000000
   1182 C         -13.7760    8.1899   31.1960 ca      1  CNT         0.000000
   1183 C         -14.3625    7.1113   31.9050 ca      1  CNT         0.000000
   1184 C         -14.8647    5.9910   31.1960 ca      1  CNT         0.000000
   1185 C         -15.2797    4.8355   31.9050 ca      1  CNT         0.000000
   1186 C         -15.6050    3.6517   31.1960 ca      1  CNT         0.000000
   1187 C         -15.8388    2.4464   31.9050 ca      1  CNT         0.000000
   1188 C         -15.9796    1.2268   31.1960 ca      1  CNT         0.000000
   1189 C         -16.0266   -0.0000   31.9050 ca      1  CNT         0.000000
   1190 C         -15.9796   -1.2268   31.1960 ca      1  CNT         0.000000
   1191 C         -15.8388   -2.4464   31.9050 ca      1  CNT         0.000000
   1192 C         -15.6050   -3.6517   31.1960 ca      1  CNT         0.000000
   1193 C         -15.2797   -4.8355   31.9050 ca      1  CNT         0.000000
   1194 C         -14.8647   -5.9910   31.1960 ca      1  CNT         0.000000
   1195 C         -14.3625   -7.1113   31.9050 ca      1  CNT         0.000000
   1196 C         -13.7760   -8.1899   31.1960 ca      1  CNT         0.000000
   1197 C         -13.1086   -9.2204   31.9050 ca      1  CNT         0.000000
   1198 C         -12.3643  -10.1968   31.1960 ca      1  CNT         0.000000
   1199 C         -11.5475  -11.1134   31.9050 ca      1  CNT         0.000000
   1200 C         -10.6629  -11.9647   31.1960 ca      1  CNT         0.000000
   1201 C          -9.7157  -12.7458   31.9050 ca      1  CNT         0.000000
   1202 C          -8.7115  -13.4522   31.1960 ca      1  CNT         0.000000
   1203 C          -7.6562  -14.0795   31.9050 ca      1  CNT         0.000000
   1204 C          -6.5560  -14.6243   31.1960 ca      1  CNT         0.000000
   1205 C          -5.4173  -15.0833   31.9050 ca      1  CNT         0.000000
   1206 C          -4.2467  -15.4537   31.1960 ca      1  CNT         0.000000
   1207 C          -3.0513  -15.7334   31.9050 ca      1  CNT         0.000000
   1208 C          -1.8380  -15.9208   31.1960 ca      1  CNT         0.000000
   1209 C          -0.6139  -16.0148   31.9050 ca      1  CNT         0.000000
   1210 C           0.6139  -16.0148   31.1960 ca      1  CNT         0.000000
   1211 C           1.8380  -15.9208   31.9050 ca      1  CNT         0.000000
   1212 C           3.0513  -15.7334   31.1960 ca      1  CNT         0.000000
   1213 C           4.2467  -15.4537   31.9050 ca      1  CNT         0.000000
   1214 C           5.4173  -15.0833   31.1960 ca      1  CNT         0.000000
   1215 C           6.5560  -14.6243   31.9050 ca      1  CNT         0.000000
   1216 C           7.6562  -14.0795   31.1960 ca      1  CNT         0.000000
   1217 C           8.7115  -13.4522   31.9050 ca      1  CNT         0.000000
   1218 C           9.7157  -12.7458   31.1960 ca      1  CNT         0.000000
   1219 C          10.6629  -11.9647   31.9050 ca      1  CNT         0.000000
   1220 C          11.5475  -11.1134   31.1960 ca      1  CNT         0.000000
   1221 C          12.3643  -10.1968   31.9050 ca      1  CNT         0.000000
   1222 C          13.1086   -9.2204   31.1960 ca      1  CNT         0.000000
   1223 C          13.7760   -8.1899   31.9050 ca      1  CNT         0.000000
   1224 C          14.3625   -7.1113   31.1960 ca      1  CNT         0.000000
   1225 C          14.8647   -5.9910   31.9050 ca      1  CNT         0.000000
   1226 C          15.2797   -4.8355   31.1960 ca      1  CNT         0.000000
   1227 C          15.6050   -3.6517   31.9050 ca      1  CNT         0.000000
   1228 C          15.8388   -2.4464   31.1960 ca      1  CNT         0.000000
   1229 C          15.9796   -1.2268   31.9050 ca      1  CNT         0.000000
   1230 C          16.0266   -0.0000   31.1960 ca      1  CNT         0.000000
   1231 C          16.0266    0.0000   29.7780 ca      1  CNT         0.000000
   1232 C          15.9796    1.2268   29.0690 ca      1  CNT         0.000000
   1233 C          15.8388    2.4464   29.7780 ca      1  CNT         0.000000
   1234 C          15.6050    3.6517   29.0690 ca      1  CNT         0.000000
   1235 C          15.2797    4.8355   29.7780 ca      1  CNT         0.000000
   1236 C          14.8647    5.9910   29.0690 ca      1  CNT         0.000000
   1237 C          14.3625    7.1113   29.7780 ca      1  CNT         0.000000
   1238 C          13.7760    8.1899   29.0690 ca      1  CNT         0.000000
   1239 C          13.1086    9.2204   29.7780 ca      1  CNT         0.000000
   1240 C          12.3643   10.1968   29.0690 ca      1  CNT         0.000000
   1241 C          11.5475   11.1134   29.7780 ca      1  CNT         0.000000
   1242 C          10.6629   11.9647   29.0690 ca      1  CNT         0.000000
   1243 C           9.7157   12.7458   29.7780 ca      1  CNT         0.000000
   1244 C           8.7115   13.4522   29.0690 ca      1  CNT         0.000000
   1245 C           7.6562   14.0795   29.7780 ca      1  CNT         0.000000
   1246 C           6.5560   14.6243   29.0690 ca      1  CNT         0.000000
   1247 C           5.4173   15.0833   29.7780 ca      1  CNT         0.000000
   1248 C           4.2467   15.4537   29.0690 ca      1  CNT         0.000000
   1249 C           3.0513   15.7334   29.7780 ca      1  CNT         0.000000
   1250 C           1.8380   15.9208   29.0690 ca      1  CNT         0.000000
   1251 C           0.6139   16.0148   29.7780 ca      1  CNT         0.000000
   1252 C          -0.6139   16.0148   29.0690 ca      1  CNT         0.000000
   1253 C          -1.8380   15.9208   29.7780 ca      1  CNT         0.000000
   1254 C          -3.0513   15.7334   29.0690 ca      1  CNT         0.000000
   1255 C          -4.2467   15.4537   29.7780 ca      1  CNT         0.000000
   1256 C          -5.4173   15.0833   29.0690 ca      1  CNT         0.000000
   1257 C          -6.5560   14.6243   29.7780 ca      1  CNT         0.000000
   1258 C          -7.6562   14.0795   29.0690 ca      1  CNT         0.000000
   1259 C          -8.7115   13.4522   29.7780 ca      1  CNT         0.000000
   1260 C          -9.7157   12.7458   29.0690 ca      1  CNT         0.000000
   1261 C         -10.6629   11.9647   29.7780 ca      1  CNT         0.000000
   1262 C         -11.5475   11.1134   29.0690 ca      1  CNT         0.000000
   1263 C         -12.3643   10.1968   29.7780 ca      1  CNT         0.000000
   1264 C         -13.1086    9.2204   29.0690 ca      1  CNT         0.000000
   1265 C         -13.7760    8.1899   29.7780 ca      1  CNT         0.000000
   1266 C         -14.3625    7.1113   29.0690 ca      1  CNT         0.000000
   1267 C         -14.8647    5.9910   29.7780 ca      1  CNT         0.000000
   1268 C         -15.2797    4.8355   29.0690 ca      1  CNT         0.000000
   1269 C         -15.6050    3.6517   29.7780 ca      1  CNT         0.000000
   1270 C         -15.8388    2.4464   29.0690 ca      1  CNT         0.000000
   1271 C         -15.9796    1.2268   29.7780 ca      1  CNT         0.000000
   1272 C         -16.0266    0.0000   29.0690 ca      1  CNT         0.000000
   1273 C         -15.9796   -1.2268   29.7780 ca      1  CNT         0.000000
   1274 C         -15.8388   -2.4464   29.0690 ca      1  CNT         0.000000
   1275 C         -15.6050   -3.6517   29.7780 ca      1  CNT         0.000000
   1276 C         -15.2797   -4.8355   29.0690 ca      1  CNT         0.000000
   1277 C         -14.8647   -5.9910   29.7780 ca      1  CNT         0.000000
   1278 C         -14.3625   -7.1113   29.0690 ca      1  CNT         0.000000
   1279 C         -13.7760   -8.1899   29.7780 ca      1  CNT         0.000000
   1280 C         -13.1086   -9.2204   29.0690 ca      1  CNT         0.000000
   1281 C         -12.3643  -10.1968   29.7780 ca      1  CNT         0.000000
   1282 C         -11.5475  -11.1134   29.0690 ca      1  CNT         0.000000
   1283 C         -10.6629  -11.9647   29.7780 ca      1  CNT         0.000000
   1284 C          -9.7157  -12.7458   29.0690 ca      1  CNT         0.000000
   1285 C          -8.7115  -13.4522   29.7780 ca      1  CNT         0.000000
   1286 C          -7.6562  -14.0795   29.0690 ca      1  CNT         0.000000
   1287 C          -6.5560  -14.6243   29.7780 ca      1  CNT         0.000000
   1288 C          -5.4173  -15.0833   29.0690 ca      1  CNT         0.000000
   1289 C          -4.2467  -15.4537   29.7780 ca      1  CNT         0.000000
   1290 C          -3.0513  -15.7334   29.0690 ca      1  CNT         0.000000
   1291 C          -1.8380  -15.9208   29.7780 ca      1  CNT         0.000000
   1292 C          -0.6139  -16.0148   29.0690 ca      1  CNT         0.000000
   1293 C           0.6139  -16.0148   29.7780 ca      1  CNT         0.000000
   1294 C           1.8380  -15.9208   29.0690 ca      1  CNT         0.000000
   1295 C           3.0513  -15.7334   29.7780 ca      1  CNT         0.000000
   1296 C           4.2467  -15.4537   29.0690 ca      1  CNT         0.000000
   1297 C           5.4173  -15.0833   29.7780 ca      1  CNT         0.000000
   1298 C           6.5560  -14.6243   29.0690 ca      1  CNT         0.000000
   1299 C           7.6562  -14.0795   29.7780 ca      1  CNT         0.000000
   1300 C           8.7115  -13.4522   29.0690 ca      1  CNT         0.000000
   1301 C           9.7157  -12.7458   29.7780 ca      1  CNT         0.000000
   1302 C          10.6629  -11.9647   29.0690 ca      1  CNT         0.000000
   1303 C          11.5475  -11.1134   29.7780 ca      1  CNT         0.000000
   1304 C          12.3643  -10.1968   29.0690 ca      1  CNT         0.000000
   1305 C          13.1086   -9.2204   29.7780 ca      1  CNT         0.000000
   1306 C          13.7760   -8.1899   29.0690 ca      1  CNT         0.000000
   1307 C          14.3625   -7.1113   29.7780 ca      1  CNT         0.000000
   1308 C          14.8647   -5.9910   29.0690 ca      1  CNT         0.000000
   1309 C          15.2797   -4.8355   29.7780 ca      1  CNT         0.000000
   1310 C          15.6050   -3.6517   29.0690 ca      1  CNT         0.000000
   1311 C          15.8388   -2.4464   29.7780 ca      1  CNT         0.000000
   1312 C          15.9796   -1.2268   29.0690 ca      1  CNT         0.000000
   1313 C          15.9796    1.2268   36.1590 ca      1  CNT         0.000000
   1314 C          15.8388    2.4464   35.4500 ca      1  CNT         0.000000
   1315 C          15.6050    3.6517   36.1590 ca      1  CNT         0.000000
   1316 C          15.2797    4.8355   35.4500 ca      1  CNT         0.000000
   1317 C          14.8647    5.9910   36.1590 ca      1  CNT         0.000000
   1318 C          14.3625    7.1113   35.4500 ca      1  CNT         0.000000
   1319 C          13.7760    8.1899   36.1590 ca      1  CNT         0.000000
   1320 C          13.1086    9.2204   35.4500 ca      1  CNT         0.000000
   1321 C          12.3643   10.1968   36.1590 ca      1  CNT         0.000000
   1322 C          11.5475   11.1134   35.4500 ca      1  CNT         0.000000
   1323 C          10.6629   11.9647   36.1590 ca      1  CNT         0.000000
   1324 C           9.7157   12.7458   35.4500 ca      1  CNT         0.000000
   1325 C           8.7115   13.4522   36.1590 ca      1  CNT         0.000000
   1326 C           7.6562   14.0795   35.4500 ca      1  CNT         0.000000
   1327 C           6.5560   14.6243   36.1590 ca      1  CNT         0.000000
   1328 C           5.4173   15.0833   35.4500 ca      1  CNT         0.000000
   1329 C           4.2467   15.4537   36.1590 ca      1  CNT         0.000000
   1330 C           3.0513   15.7334   35.4500 ca      1  CNT         0.000000
   1331 C           1.8380   15.9208   36.1590 ca      1  CNT         0.000000
   1332 C           0.6139   16.0148   35.4500 ca      1  CNT         0.000000
   1333 C          -0.6139   16.0148   36.1590 ca      1  CNT         0.000000
   1334 C          -1.8380   15.9208   35.4500 ca      1  CNT         0.000000
   1335 C          -3.0513   15.7334   36.1590 ca      1  CNT         0.000000
   1336 C          -4.2467   15.4537   35.4500 ca      1  CNT         0.000000
   1337 C          -5.4173   15.0833   36.1590 ca      1  CNT         0.000000
   1338 C          -6.5560   14.6243   35.4500 ca      1  CNT         0.000000
   1339 C          -7.6562   14.0795   36.1590 ca      1  CNT         0.000000
   1340 C          -8.7115   13.4522   35.4500 ca      1  CNT         0.000000
   1341 C          -9.7157   12.7458   36.1590 ca      1  CNT         0.000000
   1342 C         -10.6629   11.9647   35.4500 ca      1  CNT         0.000000
   1343 C         -11.5475   11.1134   36.1590 ca      1  CNT         0.000000
   1344 C         -12.3643   10.1968   35.4500 ca      1  CNT         0.000000
   1345 C         -13.1086    9.2204   36.1590 ca      1  CNT         0.000000
   1346 C         -13.7760    8.1899   35.4500 ca      1  CNT         0.000000
   1347 C         -14.3625    7.1113   36.1590 ca      1  CNT         0.000000
   1348 C         -14.8647    5.9910   35.4500 ca      1  CNT         0.000000
   1349 C         -15.2797    4.8355   36.1590 ca      1  CNT         0.000000
   1350 C         -15.6050    3.6517   35.4500 ca      1  CNT         0.000000
   1351 C         -15.8388    2.4464   36.1590 ca      1  CNT         0.000000
   1352 C         -15.9796    1.2268   35.4500 ca      1  CNT         0.000000
   1353 C         -16.0266   -0.0000   36.1590 ca      1  CNT         0.000000
   1354 C         -15.9796   -1.2268   35.4500 ca      1  CNT         0.000000
   1355 C         -15.8388   -2.4464   36.1590 ca      1  CNT         0.000000
   1356 C         -15.6050   -3.6517   35.4500 ca      1  CNT         0.000000
   1357 C         -15.2797   -4.8355   36.1590 ca      1  CNT         0.000000
   1358 C         -14.8647   -5.9910   35.4500 ca      1  CNT         0.000000
   1359 C         -14.3625   -7.1113   36.1590 ca      1  CNT         0.000000
   1360 C         -13.7760   -8.1899   35.4500 ca      1  CNT         0.000000
   1361 C         -13.1086   -9.2204   36.1590 ca      1  CNT         0.000000
   1362 C         -12.3643  -10.1968   35.4500 ca      1  CNT         0.000000
   1363 C         -11.5475  -11.1134   36.1590 ca      1  CNT         0.000000
   1364 C         -10.6629  -11.9647   35.4500 ca      1  CNT         0.000000
   1365 C          -9.7157  -12.7458   36.1590 ca      1  CNT         0.000000
   1366 C          -8.7115  -13.4522   35.4500 ca      1  CNT         0.000000
   1367 C          -7.6562  -14.0795   36.1590 ca      1  CNT         0.000000
   1368 C          -6.5560  -14.6243   35.4500 ca      1  CNT         0.000000
   1369 C          -5.4173  -15.0833   36.1590 ca      1  CNT         0.000000
   1370 C          -4.2467  -15.4537   35.4500 ca      1  CNT         0.000000
   1371 C          -3.0513  -15.7334   36.1590 ca      1  CNT         0.000000
   1372 C          -1.8380  -15.9208   35.4500 ca      1  CNT         0.000000
   1373 C          -0.6139  -16.0148   36.1590 ca      1  CNT         0.000000
   1374 C           0.6139  -16.0148   35.4500 ca      1  CNT         0.000000
   1375 C           1.8380  -15.9208   36.1590 ca      1  CNT         0.000000
   1376 C           3.0513  -15.7334   35.4500 ca      1  CNT         0.000000
   1377 C           4.2467  -15.4537   36.1590 ca      1  CNT         0.000000
   1378 C           5.4173  -15.0833   35.4500 ca      1  CNT         0.000000
   1379 C           6.5560  -14.6243   36.1590 ca      1  CNT         0.000000
   1380 C           7.6562  -14.0795   35.4500 ca      1  CNT         0.000000
   1381 C           8.7115  -13.4522   36.1590 ca      1  CNT         0.000000
   1382 C           9.7157  -12.7458   35.4500 ca      1  CNT         0.000000
   1383 C          10.6629  -11.9647   36.1590 ca      1  CNT         0.000000
   1384 C          11.5475  -11.1134   35.4500 ca      1  CNT         0.000000
   1385 C          12.3643  -10.1968   36.1590 ca      1  CNT         0.000000
   1386 C          13.1086   -9.2204   35.4500 ca      1  CNT         0.000000
   1387 C          13.7760   -8.1899   36.1590 ca      1  CNT         0.000000
   1388 C          14.3625   -7.1113   35.4500 ca      1  CNT         0.000000
   1389 C          14.8647   -5.9910   36.1590 ca      1  CNT         0.000000
   1390 C          15.2797   -4.8355   35.4500 ca      1  CNT         0.000000
   1391 C          15.6050   -3.6517   36.1590 ca      1  CNT         0.000000
   1392 C          15.8388   -2.4464   35.4500 ca      1  CNT         0.000000
   1393 C          15.9796   -1.2268   36.1590 ca      1  CNT         0.000000
   1394 C          16.0266   -0.0000   35.4500 ca      1  CNT         0.000000
   1395 C          16.0266    0.0000   34.0320 ca      1  CNT         0.000000
   1396 C          15.9796    1.2268   33.3230 ca      1  CNT         0.000000
   1397 C          15.8388    2.4464   34.0320 ca      1  CNT         0.000000
   1398 C          15.6050    3.6517   33.3230 ca      1  CNT         0.000000
   1399 C          15.2797    4.8355   34.0320 ca      1  CNT         0.000000
   1400 C          14.8647    5.9910   33.3230 ca      1  CNT         0.000000
   1401 C          14.3625    7.1113   34.0320 ca      1  CNT         0.000000
   1402 C          13.7760    8.1899   33.3230 ca      1  CNT         0.000000
   1403 C          13.1086    9.2204   34.0320 ca      1  CNT         0.000000
   1404 C          12.3643   10.1968   33.3230 ca      1  CNT         0.000000
   1405 C          11.5475   11.1134   34.0320 ca      1  CNT         0.000000
   1406 C          10.6629   11.9647   33.3230 ca      1  CNT         0.000000
   1407 C           9.7157   12.7458   34.0320 ca      1  CNT         0.000000
   1408 C           8.7115   13.4522   33.3230 ca      1  CNT         0.000000
   1409 C           7.6562   14.0795   34.0320 ca      1  CNT         0.000000
   1410 C           6.5560   14.6243   33.3230 ca      1  CNT         0.000000
   1411 C           5.4173   15.0833   34.0320 ca      1  CNT         0.000000
   1412 C           4.2467   15.4537   33.3230 ca      1  CNT         0.000000
   1413 C           3.0513   15.7334   34.0320 ca      1  CNT         0.000000
   1414 C           1.8380   15.9208   33.3230 ca      1  CNT         0.000000
   1415 C           0.6139   16.0148   34.0320 ca      1  CNT         0.000000
   1416 C          -0.6139   16.0148   33.3230 ca      1  CNT         0.000000
   1417 C          -1.8380   15.9208   34.0320 ca      1  CNT         0.000000
   1418 C          -3.0513   15.7334   33.3230 ca      1  CNT         0.000000
   1419 C          -4.2467   15.4537   34.0320 ca      1  CNT         0.000000
   1420 C          -5.4173   15.0833   33.3230 ca      1  CNT         0.000000
   1421 C          -6.5560   14.6243   34.0320 ca      1  CNT         0.000000
   1422 C          -7.6562   14.0795   33.3230 ca      1  CNT         0.000000
   1423 C          -8.7115   13.4522   34.0320 ca      1  CNT         0.000000
   1424 C          -9.7157   12.7458   33.3230 ca      1  CNT         0.000000
   1425 C         -10.6629   11.9647   34.0320 ca      1  CNT         0.000000
   1426 C         -11.5475   11.1134   33.3230 ca      1  CNT         0.000000
   1427 C         -12.3643   10.1968   34.0320 ca      1  CNT         0.000000
   1428 C         -13.1086    9.2204   33.3230 ca      1  CNT         0.000000
   1429 C         -13.7760    8.1899   34.0320 ca      1  CNT         0.000000
   1430 C         -14.3625    7.1113   33.3230 ca      1  CNT         0.000000
   1431 C         -14.8647    5.9910   34.0320 ca      1  CNT         0.000000
   1432 C         -15.2797    4.8355   33.3230 ca      1  CNT         0.000000
   1433 C         -15.6050    3.6517   34.0320 ca      1  CNT         0.000000
   1434 C         -15.8388    2.4464   33.3230 ca      1  CNT         0.000000
   1435 C         -15.9796    1.2268   34.0320 ca      1  CNT         0.000000
   1436 C         -16.0266    0.0000   33.3230 ca      1  CNT         0.000000
   1437 C         -15.9796   -1.2268   34.0320 ca      1  CNT         0.000000
   1438 C         -15.8388   -2.4464   33.3230 ca      1  CNT         0.000000
   1439 C         -15.6050   -3.6517   34.0320 ca      1  CNT         0.000000
   1440 C         -15.2797   -4.8355   33.3230 ca      1  CNT         0.000000
   1441 C         -14.8647   -5.9910   34.0320 ca      1  CNT         0.000000
   1442 C         -14.3625   -7.1113   33.3230 ca      1  CNT         0.000000
   1443 C         -13.7760   -8.1899   34.0320 ca      1  CNT         0.000000
   1444 C         -13.1086   -9.2204   33.3230 ca      1  CNT         0.000000
   1445 C         -12.3643  -10.1968   34.0320 ca      1  CNT         0.000000
   1446 C         -11.5475  -11.1134   33.3230 ca      1  CNT         0.000000
   1447 C         -10.6629  -11.9647   34.0320 ca      1  CNT         0.000000
   1448 C          -9.7157  -12.7458   33.3230 ca      1  CNT         0.000000
   1449 C          -8.7115  -13.4522   34.0320 ca      1  CNT         0.000000
   1450 C          -7.6562  -14.0795   33.3230 ca      1  CNT         0.000000
   1451 C          -6.5560  -14.6243   34.0320 ca      1  CNT         0.000000
   1452 C          -5.4173  -15.0833   33.3230 ca      1  CNT         0.000000
   1453 C          -4.2467  -15.4537   34.0320 ca      1  CNT         0.000000
   1454 C          -3.0513  -15.7334   33.3230 ca      1  CNT         0.000000
   1455 C          -1.8380  -15.9208   34.0320 ca      1  CNT         0.000000
   1456 C          -0.6139  -16.0148   33.3230 ca      1  CNT         0.000000
   1457 C           0.6139  -16.0148   34.0320 ca      1  CNT         0.000000
   1458 C           1.8380  -15.9208   33.3230 ca      1  CNT         0.000000
   1459 C           3.0513  -15.7334   34.0320 ca      1  CNT         0.000000
   1460 C           4.2467  -15.4537   33.3230 ca      1  CNT         0.000000
   1461 C           5.4173  -15.0833   34.0320 ca      1  CNT         0.000000
   1462 C           6.5560  -14.6243   33.3230 ca      1  CNT         0.000000
   1463 C           7.6562  -14.0795   34.0320 ca      1  CNT         0.000000
   1464 C           8.7115  -13.4522   33.3230 ca      1  CNT         0.000000
   1465 C           9.7157  -12.7458   34.0320 ca      1  CNT         0.000000
   1466 C          10.6629  -11.9647   33.3230 ca      1  CNT         0.000000
   1467 C          11.5475  -11.1134   34.0320 ca      1  CNT         0.000000
   1468 C          12.3643  -10.1968   33.3230 ca      1  CNT         0.000000
   1469 C          13.1086   -9.2204   34.0320 ca      1  CNT         0.000000
   1470 C          13.7760   -8.1899   33.3230 ca      1  CNT         0.000000
   1471 C          14.3625   -7.1113   34.0320 ca      1  CNT         0.000000
   1472 C          14.8647   -5.9910   33.3230 ca      1  CNT         0.000000
   1473 C          15.2797   -4.8355   34.0320 ca      1  CNT         0.000000
   1474 C          15.6050   -3.6517   33.3230 ca      1  CNT         0.000000
   1475 C          15.8388   -2.4464   34.0320 ca      1  CNT         0.000000
   1476 C          15.9796   -1.2268   33.3230 ca      1  CNT         0.000000
   1477 C          15.9796    1.2268   40.4130 ca      1  CNT         0.000000
   1478 C          15.8388    2.4464   39.7040 ca      1  CNT         0.000000
   1479 C          15.6050    3.6517   40.4130 ca      1  CNT         0.000000
   1480 C          15.2797    4.8355   39.7040 ca      1  CNT         0.000000
   1481 C          14.8647    5.9910   40.4130 ca      1  CNT         0.000000
   1482 C          14.3625    7.1113   39.7040 ca      1  CNT         0.000000
   1483 C          13.7760    8.1899   40.4130 ca      1  CNT         0.000000
   1484 C          13.1086    9.2204   39.7040 ca      1  CNT         0.000000
   1485 C          12.3643   10.1968   40.4130 ca      1  CNT         0.000000
   1486 C          11.5475   11.1134   39.7040 ca      1  CNT         0.000000
   1487 C          10.6629   11.9647   40.4130 ca      1  CNT         0.000000
   1488 C           9.7157   12.7458   39.7040 ca      1  CNT         0.000000
   1489 C           8.7115   13.4522   40.4130 ca      1  CNT         0.000000
   1490 C           7.6562   14.0795   39.7040 ca      1  CNT         0.000000
   1491 C           6.5560   14.6243   40.4130 ca      1  CNT         0.000000
   1492 C           5.4173   15.0833   39.7040 ca      1  CNT         0.000000
   1493 C           4.2467   15.4537   40.4130 ca      1  CNT         0.000000
   1494 C           3.0513   15.7334   39.7040 ca      1  CNT         0.000000
   1495 C           1.8380   15.9208   40.4130 ca      1  CNT         0.000000
   1496 C           0.6139   16.0148   39.7040 ca      1  CNT         0.000000
   1497 C          -0.6139   16.0148   40.4130 ca      1  CNT         0.000000
   1498 C          -1.8380   15.9208   39.7040 ca      1  CNT         0.000000
   1499 C          -3.0513   15.7334   40.4130 ca      1  CNT         0.000000
   1500 C          -4.2467   15.4537   39.7040 ca      1  CNT         0.000000
   1501 C          -5.4173   15.0833   40.4130 ca      1  CNT         0.000000
   1502 C          -6.5560   14.6243   39.7040 ca      1  CNT         0.000000
   1503 C          -7.6562   14.0795   40.4130 ca      1  CNT         0.000000
   1504 C          -8.7115   13.4522   39.7040 ca      1  CNT         0.000000
   1505 C          -9.7157   12.7458   40.4130 ca      1  CNT         0.000000
   1506 C         -10.6629   11.9647   39.7040 ca      1  CNT         0.000000
   1507 C         -11.5475   11.1134   40.4130 ca      1  CNT         0.000000
   1508 C         -12.3643   10.1968   39.7040 ca      1  CNT         0.000000
   1509 C         -13.1086    9.2204   40.4130 ca      1  CNT         0.000000
   1510 C         -13.7760    8.1899   39.7040 ca      1  CNT         0.000000
   1511 C         -14.3625    7.1113   40.4130 ca      1  CNT         0.000000
   1512 C         -14.8647    5.9910   39.7040 ca      1  CNT         0.000000
   1513 C         -15.2797    4.8355   40.4130 ca      1  CNT         0.000000
   1514 C         -15.6050    3.6517   39.7040 ca      1  CNT         0.000000
   1515 C         -15.8388    2.4464   40.4130 ca      1  CNT         0.000000
   1516 C         -15.9796    1.2268   39.7040 ca      1  CNT         0.000000
   1517 C         -16.0266   -0.0000   40.4130 ca      1  CNT         0.000000
   1518 C         -15.9796   -1.2268   39.7040 ca      1  CNT         0.000000
   1519 C         -15.8388   -2.4464   40.4130 ca      1  CNT         0.000000
   1520 C         -15.6050   -3.6517   39.7040 ca      1  CNT         0.000000
   1521 C         -15.2797   -4.8355   40.4130 ca      1  CNT         0.000000
   1522 C         -14.8647   -5.9910   39.7040 ca      1  CNT         0.000000
   1523 C         -14.3625   -7.1113   40.4130 ca      1  CNT         0.000000
   1524 C         -13.7760   -8.1899   39.7040 ca      1  CNT         0.000000
   1525 C         -13.1086   -9.2204   40.4130 ca      1  CNT         0.000000
   1526 C         -12.3643  -10.1968   39.7040 ca      1  CNT         0.000000
   1527 C         -11.5475  -11.1134   40.4130 ca      1  CNT         0.000000
   1528 C         -10.6629  -11.9647   39.7040 ca      1  CNT         0.000000
   1529 C          -9.7157  -12.7458   40.4130 ca      1  CNT         0.000000
   1530 C          -8.7115  -13.4522   39.7040 ca      1  CNT         0.000000
   1531 C          -7.6562  -14.0795   40.4130 ca      1  CNT         0.000000
   1532 C          -6.5560  -14.6243   39.7040 ca      1  CNT         0.000000
   1533 C          -5.4173  -15.0833   40.4130 ca      1  CNT         0.000000
   1534 C          -4.2467  -15.4537   39.7040 ca      1  CNT         0.000000
   1535 C          -3.0513  -15.7334   40.4130 ca      1  CNT         0.000000
   1536 C          -1.8380  -15.9208   39.7040 ca      1  CNT         0.000000
   1537 C          -0.6139  -16.0148   40.4130 ca      1  CNT         0.000000
   1538 C           0.6139  -16.0148   39.7040 ca      1  CNT         0.000000
   1539 C           1.8380  -15.9208   40.4130 ca      1  CNT         0.000000
   1540 C           3.0513  -15.7334   39.7040 ca      1  CNT         0.000000
   1541 C           4.2467  -15.4537   40.4130 ca      1  CNT         0.000000
   1542 C           5.4173  -15.0833   39.7040 ca      1  CNT         0.000000
   1543 C           6.5560  -14.6243   40.4130 ca      1  CNT         0.000000
   1544 C           7.6562  -14.0795   39.7040 ca      1  CNT         0.000000
   1545 C           8.7115  -13.4522   40.4130 ca      1  CNT         0.000000
   1546 C           9.7157  -12.7458   39.7040 ca      1  CNT         0.000000
   1547 C          10.6629  -11.9647   40.4130 ca      1  CNT         0.000000
   1548 C          11.5475  -11.1134   39.7040 ca      1  CNT         0.000000
   1549 C          12.3643  -10.1968   40.4130 ca      1  CNT         0.000000
   1550 C          13.1086   -9.2204   39.7040 ca      1  CNT         0.000000
   1551 C          13.7760   -8.1899   40.4130 ca      1  CNT         0.000000
   1552 C          14.3625   -7.1113   39.7040 ca      1  CNT         0.000000
   1553 C          14.8647   -5.9910   40.4130 ca      1  CNT         0.000000
   1554 C          15.2797   -4.8355   39.7040 ca      1  CNT         0.000000
   1555 C          15.6050   -3.6517   40.4130 ca      1  CNT         0.000000
   1556 C          15.8388   -2.4464   39.7040 ca      1  CNT         0.000000
   1557 C          15.9796   -1.2268   40.4130 ca      1  CNT         0.000000
   1558 C          16.0266   -0.0000   39.7040 ca      1  CNT         0.000000
   1559 C          16.0266    0.0000   38.2860 ca      1  CNT         0.000000
   1560 C          15.9796    1.2268   37.5770 ca      1  CNT         0.000000
   1561 C          15.8388    2.4464   38.2860 ca      1  CNT         0.000000
   1562 C          15.6050    3.6517   37.5770 ca      1  CNT         0.000000
   1563 C          15.2797    4.8355   38.2860 ca      1  CNT         0.000000
   1564 C          14.8647    5.9910   37.5770 ca      1  CNT         0.000000
   1565 C          14.3625    7.1113   38.2860 ca      1  CNT         0.000000
   1566 C          13.7760    8.1899   37.5770 ca      1  CNT         0.000000
   1567 C          13.1086    9.2204   38.2860 ca      1  CNT         0.000000
   1568 C          12.3643   10.1968   37.5770 ca      1  CNT         0.000000
   1569 C          11.5475   11.1134   38.2860 ca      1  CNT         0.000000
   1570 C          10.6629   11.9647   37.5770 ca      1  CNT         0.000000
   1571 C           9.7157   12.7458   38.2860 ca      1  CNT         0.000000
   1572 C           8.7115   13.4522   37.5770 ca      1  CNT         0.000000
   1573 C           7.6562   14.0795   38.2860 ca      1  CNT         0.000000
   1574 C           6.5560   14.6243   37.5770 ca      1  CNT         0.000000
   1575 C           5.4173   15.0833   38.2860 ca      1  CNT         0.000000
   1576 C           4.2467   15.4537   37.5770 ca      1  CNT         0.000000
   1577 C           3.0513   15.7334   38.2860 ca      1  CNT         0.000000
   1578 C           1.8380   15.9208   37.5770 ca      1  CNT         0.000000
   1579 C           0.6139   16.0148   38.2860 ca      1  CNT         0.000000
   1580 C          -0.6139   16.0148   37.5770 ca      1  CNT         0.000000
   1581 C          -1.8380   15.9208   38.2860 ca      1  CNT         0.000000
   1582 C          -3.0513   15.7334   37.5770 ca      1  CNT         0.000000
   1583 C          -4.2467   15.4537   38.2860 ca      1  CNT         0.000000
   1584 C          -5.4173   15.0833   37.5770 ca      1  CNT         0.000000
   1585 C          -6.5560   14.6243   38.2860 ca      1  CNT         0.000000
   1586 C          -7.6562   14.0795   37.5770 ca      1  CNT         0.000000
   1587 C          -8.7115   13.4522   38.2860 ca      1  CNT         0.000000
   1588 C          -9.7157   12.7458   37.5770 ca      1  CNT         0.000000
   1589 C         -10.6629   11.9647   38.2860 ca      1  CNT         0.000000
   1590 C         -11.5475   11.1134   37.5770 ca      1  CNT         0.000000
   1591 C         -12.3643   10.1968   38.2860 ca      1  CNT         0.000000
   1592 C         -13.1086    9.2204   37.5770 ca      1  CNT         0.000000
   1593 C         -13.7760    8.1899   38.2860 ca      1  CNT         0.000000
   1594 C         -14.3625    7.1113   37.5770 ca      1  CNT         0.000000
   1595 C         -14.8647    5.9910   38.2860 ca      1  CNT         0.000000
   1596 C         -15.2797    4.8355   37.5770 ca      1  CNT         0.000000
   1597 C         -15.6050    3.6517   38.2860 ca      1  CNT         0.000000
   1598 C         -15.8388    2.4464   37.5770 ca      1  CNT         0.000000
   1599 C         -15.9796    1.2268   38.2860 ca      1  CNT         0.000000
   1600 C         -16.0266    0.0000   37.5770 ca      1  CNT         0.000000
   1601 C         -15.9796   -1.2268   38.2860 ca      1  CNT         0.000000
   1602 C         -15.8388   -2.4464   37.5770 ca      1  CNT         0.000000
   1603 C         -15.6050   -3.6517   38.2860 ca      1  CNT         0.000000
   1604 C         -15.2797   -4.8355   37.5770 ca      1  CNT         0.000000
   1605 C         -14.8647   -5.9910   38.2860 ca      1  CNT         0.000000
   1606 C         -14.3625   -7.1113   37.5770 ca      1  CNT         0.000000
   1607 C         -13.7760   -8.1899   38.2860 ca      1  CNT         0.000000
   1608 C         -13.1086   -9.2204   37.5770 ca      1  CNT         0.000000
   1609 C         -12.3643  -10.1968   38.2860 ca      1  CNT         0.000000
   1610 C         -11.5475  -11.1134   37.5770 ca      1  CNT         0.000000
   1611 C         -10.6629  -11.9647   38.2860 ca      1  CNT         0.000000
   1612 C          -9.7157  -12.7458   37.5770 ca      1  CNT         0.000000
   1613 C          -8.7115  -13.4522   38.2860 ca      1  CNT         0.000000
   1614 C          -7.6562  -14.0795   37.5770 ca      1  CNT         0.000000
   1615 C          -6.5560  -14.6243   38.2860 ca      1  CNT         0.000000
   1616 C          -5.4173  -15.0833   37.5770 ca      1  CNT         0.000000
   1617 C          -4.2467  -15.4537   38.2860 ca      1  CNT         0.000000
   1618 C          -3.0513  -15.7334   37.5770 ca      1  CNT         0.000000
   1619 C          -1.8380  -15.9208   38.2860 ca      1  CNT         0.000000
   1620 C          -0.6139  -16.0148   37.5770 ca      1  CNT         0.000000
   1621 C           0.6139  -16.0148   38.2860 ca      1  CNT         0.000000
   1622 C           1.8380  -15.9208   37.5770 ca      1  CNT         0.000000
   1623 C           3.0513  -15.7334   38.2860 ca      1  CNT         0.000000
   1624 C           4.2467  -15.4537   37.5770 ca      1  CNT         0.000000
   1625 C           5.4173  -15.0833   38.2860 ca      1  CNT         0.000000
   1626 C           6.5560  -14.6243   37.5770 ca      1  CNT         0.000000
   1627 C           7.6562  -14.0795   38.2860 ca      1  CNT         0.000000
   1628 C           8.7115  -13.4522   37.5770 ca      1  CNT         0.000000
   1629 C           9.7157  -12.7458   38.2860 ca      1  CNT         0.000000
   1630 C          10.6629  -11.9647   37.5770 ca      1  CNT         0.000000
   1631 C          11.5475  -11.1134   38.2860 ca      1  CNT         0.000000
   1632 C          12.3643  -10.1968   37.5770 ca      1  CNT         0.000000
   1633 C          13.1086   -9.2204   38.2860 ca      1  CNT         0.000000
   1634 C          13.7760   -8.1899   37.5770 ca      1  CNT         0.000000
   1635 C          14.3625   -7.1113   38.2860 ca      1  CNT         0.000000
   1636 C          14.8647   -5.9910   37.5770 ca      1  CNT         0.000000
   1637 C          15.2797   -4.8355   38.2860 ca      1  CNT         0.000000
   1638 C          15.6050   -3.6517   37.5770 ca      1  CNT         0.000000
   1639 C          15.8388   -2.4464   38.2860 ca      1  CNT         0.000000
   1640 C          15.9796   -1.2268   37.5770 ca      1  CNT         0.000000
   1641 C          15.9796    1.2268   44.6670 ca      1  CNT         0.000000
   1642 C          15.8388    2.4464   43.9580 ca      1  CNT         0.000000
   1643 C          15.6050    3.6517   44.6670 ca      1  CNT         0.000000
   1644 C          15.2797    4.8355   43.9580 ca      1  CNT         0.000000
   1645 C          14.8647    5.9910   44.6670 ca      1  CNT         0.000000
   1646 C          14.3625    7.1113   43.9580 ca      1  CNT         0.000000
   1647 C          13.7760    8.1899   44.6670 ca      1  CNT         0.000000
   1648 C          13.1086    9.2204   43.9580 ca      1  CNT         0.000000
   1649 C          12.3643   10.1968   44.6670 ca      1  CNT         0.000000
   1650 C          11.5475   11.1134   43.9580 ca      1  CNT         0.000000
   1651 C          10.6629   11.9647   44.6670 ca      1  CNT         0.000000
   1652 C           9.7157   12.7458   43.9580 ca      1  CNT         0.000000
   1653 C           8.7115   13.4522   44.6670 ca      1  CNT         0.000000
   1654 C           7.6562   14.0795   43.9580 ca      1  CNT         0.000000
   1655 C           6.5560   14.6243   44.6670 ca      1  CNT         0.000000
   1656 C           5.4173   15.0833   43.9580 ca      1  CNT         0.000000
   1657 C           4.2467   15.4537   44.6670 ca      1  CNT         0.000000
   1658 C           3.0513   15.7334   43.9580 ca      1  CNT         0.000000
   1659 C           1.8380   15.9208   44.6670 ca      1  CNT         0.000000
   1660 C           0.6139   16.0148   43.9580 ca      1  CNT         0.000000
   1661 C          -0.6139   16.0148   44.6670 ca      1  CNT         0.000000
   1662 C          -1.8380   15.9208   43.9580 ca      1  CNT         0.000000
   1663 C          -3.0513   15.7334   44.6670 ca      1  CNT         0.000000
   1664 C          -4.2467   15.4537   43.9580 ca      1  CNT         0.000000
   1665 C          -5.4173   15.0833   44.6670 ca      1  CNT         0.000000
   1666 C          -6.5560   14.6243   43.9580 ca      1  CNT         0.000000
   1667 C          -7.6562   14.0795   44.6670 ca      1  CNT         0.000000
   1668 C          -8.7115   13.4522   43.9580 ca      1  CNT         0.000000
   1669 C          -9.7157   12.7458   44.6670 ca      1  CNT         0.000000
   1670 C         -10.6629   11.9647   43.9580 ca      1  CNT         0.000000
   1671 C         -11.5475   11.1134   44.6670 ca      1  CNT         0.000000
   1672 C         -12.3643   10.1968   43.9580 ca      1  CNT         0.000000
   1673 C         -13.1086    9.2204   44.6670 ca      1  CNT         0.000000
   1674 C         -13.7760    8.1899   43.9580 ca      1  CNT         0.000000
   1675 C         -14.3625    7.1113   44.6670 ca      1  CNT         0.000000
   1676 C         -14.8647    5.9910   43.9580 ca      1  CNT         0.000000
   1677 C         -15.2797    4.8355   44.6670 ca      1  CNT         0.000000
   1678 C         -15.6050    3.6517   43.9580 ca      1  CNT         0.000000
   1679 C         -15.8388    2.4464   44.6670 ca      1  CNT         0.000000
   1680 C         -15.9796    1.2268   43.9580 ca      1  CNT         0.000000
   1681 C         -16.0266   -0.0000   44.6670 ca      1  CNT         0.000000
   1682 C         -15.9796   -1.2268   43.9580 ca      1  CNT         0.000000
   1683 C         -15.8388   -2.4464   44.6670 ca      1  CNT         0.000000
   1684 C         -15.6050   -3.6517   43.9580 ca      1  CNT         0.000000
   1685 C         -15.2797   -4.8355   44.6670 ca      1  CNT         0.000000
   1686 C         -14.8647   -5.9910   43.9580 ca      1  CNT         0.000000
   1687 C         -14.3625   -7.1113   44.6670 ca      1  CNT         0.000000
   1688 C         -13.7760   -8.1899   43.9580 ca      1  CNT         0.000000
   1689 C         -13.1086   -9.2204   44.6670 ca      1  CNT         0.000000
   1690 C         -12.3643  -10.1968   43.9580 ca      1  CNT         0.000000
   1691 C         -11.5475  -11.1134   44.6670 ca      1  CNT         0.000000
   1692 C         -10.6629  -11.9647   43.9580 ca      1  CNT         0.000000
   1693 C          -9.7157  -12.7458   44.6670 ca      1  CNT         0.000000
   1694 C          -8.7115  -13.4522   43.9580 ca      1  CNT         0.000000
   1695 C          -7.6562  -14.0795   44.6670 ca      1  CNT         0.000000
   1696 C          -6.5560  -14.6243   43.9580 ca      1  CNT         0.000000
   1697 C          -5.4173  -15.0833   44.6670 ca      1  CNT         0.000000
   1698 C          -4.2467  -15.4537   43.9580 ca      1  CNT         0.000000
   1699 C          -3.0513  -15.7334   44.6670 ca      1  CNT         0.000000
   1700 C          -1.8380  -15.9208   43.9580 ca      1  CNT         0.000000
   1701 C          -0.6139  -16.0148   44.6670 ca      1  CNT         0.000000
   1702 C           0.6139  -16.0148   43.9580 ca      1  CNT         0.000000
   1703 C           1.8380  -15.9208   44.6670 ca      1  CNT         0.000000
   1704 C           3.0513  -15.7334   43.9580 ca      1  CNT         0.000000
   1705 C           4.2467  -15.4537   44.6670 ca      1  CNT         0.000000
   1706 C           5.4173  -15.0833   43.9580 ca      1  CNT         0.000000
   1707 C           6.5560  -14.6243   44.6670 ca      1  CNT         0.000000
   1708 C           7.6562  -14.0795   43.9580 ca      1  CNT         0.000000
   1709 C           8.7115  -13.4522   44.6670 ca      1  CNT         0.000000
   1710 C           9.7157  -12.7458   43.9580 ca      1  CNT         0.000000
   1711 C          10.6629  -11.9647   44.6670 ca      1  CNT         0.000000
   1712 C          11.5475  -11.1134   43.9580 ca      1  CNT         0.000000
   1713 C          12.3643  -10.1968   44.6670 ca      1  CNT         0.000000
   1714 C          13.1086   -9.2204   43.9580 ca      1  CNT         0.000000
   1715 C          13.7760   -8.1899   44.6670 ca      1  CNT         0.000000
   1716 C          14.3625   -7.1113   43.9580 ca      1  CNT         0.000000
   1717 C          14.8647   -5.9910   44.6670 ca      1  CNT         0.000000
   1718 C          15.2797   -4.8355   43.9580 ca      1  CNT         0.000000
   1719 C          15.6050   -3.6517   44.6670 ca      1  CNT         0.000000
   1720 C          15.8388   -2.4464   43.9580 ca      1  CNT         0.000000
   1721 C          15.9796   -1.2268   44.6670 ca      1  CNT         0.000000
   1722 C          16.0266   -0.0000   43.9580 ca      1  CNT         0.000000
   1723 C          16.0266    0.0000   42.5400 ca      1  CNT         0.000000
   1724 C          15.9796    1.2268   41.8310 ca      1  CNT         0.000000
   1725 C          15.8388    2.4464   42.5400 ca      1  CNT         0.000000
   1726 C          15.6050    3.6517   41.8310 ca      1  CNT         0.000000
   1727 C          15.2797    4.8355   42.5400 ca      1  CNT         0.000000
   1728 C          14.8647    5.9910   41.8310 ca      1  CNT         0.000000
   1729 C          14.3625    7.1113   42.5400 ca      1  CNT         0.000000
   1730 C          13.7760    8.1899   41.8310 ca      1  CNT         0.000000
   1731 C          13.1086    9.2204   42.5400 ca      1  CNT         0.000000
   1732 C          12.3643   10.1968   41.8310 ca      1  CNT         0.000000
   1733 C          11.5475   11.1134   42.5400 ca      1  CNT         0.000000
   1734 C          10.6629   11.9647   41.8310 ca      1  CNT         0.000000
   1735 C           9.7157   12.7458   42.5400 ca      1  CNT         0.000000
   1736 C           8.7115   13.4522   41.8310 ca      1  CNT         0.000000
   1737 C           7.6562   14.0795   42.5400 ca      1  CNT         0.000000
   1738 C           6.5560   14.6243   41.8310 ca      1  CNT         0.000000
   1739 C           5.4173   15.0833   42.5400 ca      1  CNT         0.000000
   1740 C           4.2467   15.4537   41.8310 ca      1  CNT         0.000000
   1741 C           3.0513   15.7334   42.5400 ca      1  CNT         0.000000
   1742 C           1.8380   15.9208   41.8310 ca      1  CNT         0.000000
   1743 C           0.6139   16.0148   42.5400 ca      1  CNT         0.000000
   1744 C          -0.6139   16.0148   41.8310 ca      1  CNT         0.000000
   1745 C          -1.8380   15.9208   42.5400 ca      1  CNT         0.000000
   1746 C          -3.0513   15.7334   41.8310 ca      1  CNT         0.000000
   1747 C          -4.2467   15.4537   42.5400 ca      1  CNT         0.000000
   1748 C          -5.4173   15.0833   41.8310 ca      1  CNT         0.000000
   1749 C          -6.5560   14.6243   42.5400 ca      1  CNT         0.000000
   1750 C          -7.6562   14.0795   41.8310 ca      1  CNT         0.000000
   1751 C          -8.7115   13.4522   42.5400 ca      1  CNT         0.000000
   1752 C          -9.7157   12.7458   41.8310 ca      1  CNT         0.000000
   1753 C         -10.6629   11.9647   42.5400 ca      1  CNT         0.000000
   1754 C         -11.5475   11.1134   41.8310 ca      1  CNT         0.000000
   1755 C         -12.3643   10.1968   42.5400 ca      1  CNT         0.000000
   1756 C         -13.1086    9.2204   41.8310 ca      1  CNT         0.000000
   1757 C         -13.7760    8.1899   42.5400 ca      1  CNT         0.000000
   1758 C         -14.3625    7.1113   41.8310 ca      1  CNT         0.000000
   1759 C         -14.8647    5.9910   42.5400 ca      1  CNT         0.000000
   1760 C         -15.2797    4.8355   41.8310 ca      1  CNT         0.000000
   1761 C         -15.6050    3.6517   42.5400 ca      1  CNT         0.000000
   1762 C         -15.8388    2.4464   41.8310 ca      1  CNT         0.000000
   1763 C         -15.9796    1.2268   42.5400 ca      1  CNT         0.000000
   1764 C         -16.0266    0.0000   41.8310 ca      1  CNT         0.000000
   1765 C         -15.9796   -1.2268   42.5400 ca      1  CNT         0.000000
   1766 C         -15.8388   -2.4464   41.8310 ca      1  CNT         0.000000
   1767 C         -15.6050   -3.6517   42.5400 ca      1  CNT         0.000000
   1768 C         -15.2797   -4.8355   41.8310 ca      1  CNT         0.000000
   1769 C         -14.8647   -5.9910   42.5400 ca      1  CNT         0.000000
   1770 C         -14.3625   -7.1113   41.8310 ca      1  CNT         0.000000
   1771 C         -13.7760   -8.1899   42.5400 ca      1  CNT         0.000000
   1772 C         -13.1086   -9.2204   41.8310 ca      1  CNT         0.000000
   1773 C         -12.3643  -10.1968   42.5400 ca      1  CNT         0.000000
   1774 C         -11.5475  -11.1134   41.8310 ca      1  CNT         0.000000
   1775 C         -10.6629  -11.9647   42.5400 ca      1  CNT         0.000000
   1776 C          -9.7157  -12.7458   41.8310 ca      1  CNT         0.000000
   1777 C          -8.7115  -13.4522   42.5400 ca      1  CNT         0.000000
   1778 C          -7.6562  -14.0795   41.8310 ca      1  CNT         0.000000
   1779 C          -6.5560  -14.6243   42.5400 ca      1  CNT         0.000000
   1780 C          -5.4173  -15.0833   41.8310 ca      1  CNT         0.000000
   1781 C          -4.2467  -15.4537   42.5400 ca      1  CNT         0.000000
   1782 C          -3.0513  -15.7334   41.8310 ca      1  CNT         0.000000
   1783 C          -1.8380  -15.9208   42.5400 ca      1  CNT         0.000000
   1784 C          -0.6139  -16.0148   41.8310 ca      1  CNT         0.000000
   1785 C           0.6139  -16.0148   42.5400 ca      1  CNT         0.000000
   1786 C           1.8380  -15.9208   41.8310 ca      1  CNT         0.000000
   1787 C           3.0513  -15.7334   42.5400 ca      1  CNT         0.000000
   1788 C           4.2467  -15.4537   41.8310 ca      1  CNT         0.000000
   1789 C           5.4173  -15.0833   42.5400 ca      1  CNT         0.000000
   1790 C           6.5560  -14.6243   41.8310 ca      1  CNT         0.000000
   1791 C           7.6562  -14.0795   42.5400 ca      1  CNT         0.000000
   1792 C           8.7115  -13.4522   41.8310 ca      1  CNT         0.000000
   1793 C           9.7157  -12.7458   42.5400 ca      1  CNT         0.000000
   1794 C          10.6629  -11.9647   41.8310 ca      1  CNT         0.000000
   1795 C          11.5475  -11.1134   42.5400 ca      1  CNT         0.000000
   1796 C          12.3643  -10.1968   41.8310 ca      1  CNT         0.000000
   1797 C          13.1086   -9.2204   42.5400 ca      1  CNT         0.000000
   1798 C          13.7760   -8.1899   41.8310 ca      1  CNT         0.000000
   1799 C          14.3625   -7.1113   42.5400 ca      1  CNT         0.000000
   1800 C          14.8647   -5.9910   41.8310 ca      1  CNT         0.000000
   1801 C          15.2797   -4.8355   42.5400 ca      1  CNT         0.000000
   1802 C          15.6050   -3.6517   41.8310 ca      1  CNT         0.000000
   1803 C          15.8388   -2.4464   42.5400 ca      1  CNT         0.000000
   1804 C          15.9796   -1.2268   41.8310 ca      1  CNT         0.000000
   1805 C          15.9796    1.2268   48.9210 ca      1  CNT         0.000000
   1806 C          15.8388    2.4464   48.2120 ca      1  CNT         0.000000
   1807 C          15.6050    3.6517   48.9210 ca      1  CNT         0.000000
   1808 C          15.2797    4.8355   48.2120 ca      1  CNT         0.000000
   1809 C          14.8647    5.9910   48.9210 ca      1  CNT         0.000000
   1810 C          14.3625    7.1113   48.2120 ca      1  CNT         0.000000
   1811 C          13.7760    8.1899   48.9210 ca      1  CNT         0.000000
   1812 C          13.1086    9.2204   48.2120 ca      1  CNT         0.000000
   1813 C          12.3643   10.1968   48.9210 ca      1  CNT         0.000000
   1814 C          11.5475   11.1134   48.2120 ca      1  CNT         0.000000
   1815 C          10.6629   11.9647   48.9210 ca      1  CNT         0.000000
   1816 C           9.7157   12.7458   48.2120 ca      1  CNT         0.000000
   1817 C           8.7115   13.4522   48.9210 ca      1  CNT         0.000000
   1818 C           7.6562   14.0795   48.2120 ca      1  CNT         0.000000
   1819 C           6.5560   14.6243   48.9210 ca      1  CNT         0.000000
   1820 C           5.4173   15.0833   48.2120 ca      1  CNT         0.000000
   1821 C           4.2467   15.4537   48.9210 ca      1  CNT         0.000000
   1822 C           3.0513   15.7334   48.2120 ca      1  CNT         0.000000
   1823 C           1.8380   15.9208   48.9210 ca      1  CNT         0.000000
   1824 C           0.6139   16.0148   48.2120 ca      1  CNT         0.000000
   1825 C          -0.6139   16.0148   48.9210 ca      1  CNT         0.000000
   1826 C          -1.8380   15.9208   48.2120 ca      1  CNT         0.000000
   1827 C          -3.0513   15.7334   48.9210 ca      1  CNT         0.000000
   1828 C          -4.2467   15.4537   48.2120 ca      1  CNT         0.000000
   1829 C          -5.4173   15.0833   48.9210 ca      1  CNT         0.000000
   1830 C          -6.5560   14.6243   48.2120 ca      1  CNT         0.000000
   1831 C          -7.6562   14.0795   48.9210 ca      1  CNT         0.000000
   1832 C          -8.7115   13.4522   48.2120 ca      1  CNT         0.000000
   1833 C          -9.7157   12.7458   48.9210 ca      1  CNT         0.000000
   1834 C         -10.6629   11.9647   48.2120 ca      1  CNT         0.000000
   1835 C         -11.5475   11.1134   48.9210 ca      1  CNT         0.000000
   1836 C         -12.3643   10.1968   48.2120 ca      1  CNT         0.000000
   1837 C         -13.1086    9.2204   48.9210 ca      1  CNT         0.000000
   1838 C         -13.7760    8.1899   48.2120 ca      1  CNT         0.000000
   1839 C         -14.3625    7.1113   48.9210 ca      1  CNT         0.000000
   1840 C         -14.8647    5.9910   48.2120 ca      1  CNT         0.000000
   1841 C         -15.2797    4.8355   48.9210 ca      1  CNT         0.000000
   1842 C         -15.6050    3.6517   48.2120 ca      1  CNT         0.000000
   1843 C         -15.8388    2.4464   48.9210 ca      1  CNT         0.000000
   1844 C         -15.9796    1.2268   48.2120 ca      1  CNT         0.000000
   1845 C         -16.0266   -0.0000   48.9210 ca      1  CNT         0.000000
   1846 C         -15.9796   -1.2268   48.2120 ca      1  CNT         0.000000
   1847 C         -15.8388   -2.4464   48.9210 ca      1  CNT         0.000000
   1848 C         -15.6050   -3.6517   48.2120 ca      1  CNT         0.000000
   1849 C         -15.2797   -4.8355   48.9210 ca      1  CNT         0.000000
   1850 C         -14.8647   -5.9910   48.2120 ca      1  CNT         0.000000
   1851 C         -14.3625   -7.1113   48.9210 ca      1  CNT         0.000000
   1852 C         -13.7760   -8.1899   48.2120 ca      1  CNT         0.000000
   1853 C         -13.1086   -9.2204   48.9210 ca      1  CNT         0.000000
   1854 C         -12.3643  -10.1968   48.2120 ca      1  CNT         0.000000
   1855 C         -11.5475  -11.1134   48.9210 ca      1  CNT         0.000000
   1856 C         -10.6629  -11.9647   48.2120 ca      1  CNT         0.000000
   1857 C          -9.7157  -12.7458   48.9210 ca      1  CNT         0.000000
   1858 C          -8.7115  -13.4522   48.2120 ca      1  CNT         0.000000
   1859 C          -7.6562  -14.0795   48.9210 ca      1  CNT         0.000000
   1860 C          -6.5560  -14.6243   48.2120 ca      1  CNT         0.000000
   1861 C          -5.4173  -15.0833   48.9210 ca      1  CNT         0.000000
   1862 C          -4.2467  -15.4537   48.2120 ca      1  CNT         0.000000
   1863 C          -3.0513  -15.7334   48.9210 ca      1  CNT         0.000000
   1864 C          -1.8380  -15.9208   48.2120 ca      1  CNT         0.000000
   1865 C          -0.6139  -16.0148   48.9210 ca      1  CNT         0.000000
   1866 C           0.6139  -16.0148   48.2120 ca      1  CNT         0.000000
   1867 C           1.8380  -15.9208   48.9210 ca      1  CNT         0.000000
   1868 C           3.0513  -15.7334   48.2120 ca      1  CNT         0.000000
   1869 C           4.2467  -15.4537   48.9210 ca      1  CNT         0.000000
   1870 C           5.4173  -15.0833   48.2120 ca      1  CNT         0.000000
   1871 C           6.5560  -14.6243   48.9210 ca      1  CNT         0.000000
   1872 C           7.6562  -14.0795   48.2120 ca      1  CNT         0.000000
   1873 C           8.7115  -13.4522   48.9210 ca      1  CNT         0.000000
   1874 C           9.7157  -12.7458   48.2120 ca      1  CNT         0.000000
   1875 C          10.6629  -11.9647   48.9210 ca      1  CNT         0.000000
   1876 C          11.5475  -11.1134   48.2120 ca      1  CNT         0.000000
   1877 C          12.3643  -10.1968   48.9210 ca      1  CNT         0.000000
   1878 C          13.1086   -9.2204   48.2120 ca      1  CNT         0.000000
   1879 C          13.7760   -8.1899   48.9210 ca      1  CNT         0.000000
   1880 C          14.3625   -7.1113   48.2120 ca      1  CNT         0.000000
   1881 C          14.8647   -5.9910   48.9210 ca      1  CNT         0.000000
   1882 C          15.2797   -4.8355   48.2120 ca      1  CNT         0.000000
   1883 C          15.6050   -3.6517   48.9210 ca      1  CNT         0.000000
   1884 C          15.8388   -2.4464   48.2120 ca      1  CNT         0.000000
   1885 C          15.9796   -1.2268   48.9210 ca      1  CNT         0.000000
   1886 C          16.0266   -0.0000   48.2120 ca      1  CNT         0.000000
   1887 C          16.0266    0.0000   46.7940 ca      1  CNT         0.000000
   1888 C          15.9796    1.2268   46.0850 ca      1  CNT         0.000000
   1889 C          15.8388    2.4464   46.7940 ca      1  CNT         0.000000
   1890 C          15.6050    3.6517   46.0850 ca      1  CNT         0.000000
   1891 C          15.2797    4.8355   46.7940 ca      1  CNT         0.000000
   1892 C          14.8647    5.9910   46.0850 ca      1  CNT         0.000000
   1893 C          14.3625    7.1113   46.7940 ca      1  CNT         0.000000
   1894 C          13.7760    8.1899   46.0850 ca      1  CNT         0.000000
   1895 C          13.1086    9.2204   46.7940 ca      1  CNT         0.000000
   1896 C          12.3643   10.1968   46.0850 ca      1  CNT         0.000000
   1897 C          11.5475   11.1134   46.7940 ca      1  CNT         0.000000
   1898 C          10.6629   11.9647   46.0850 ca      1  CNT         0.000000
   1899 C           9.7157   12.7458   46.7940 ca      1  CNT         0.000000
   1900 C           8.7115   13.4522   46.0850 ca      1  CNT         0.000000
   1901 C           7.6562   14.0795   46.7940 ca      1  CNT         0.000000
   1902 C           6.5560   14.6243   46.0850 ca      1  CNT         0.000000
   1903 C           5.4173   15.0833   46.7940 ca      1  CNT         0.000000
   1904 C           4.2467   15.4537   46.0850 ca      1  CNT         0.000000
   1905 C           3.0513   15.7334   46.7940 ca      1  CNT         0.000000
   1906 C           1.8380   15.9208   46.0850 ca      1  CNT         0.000000
   1907 C           0.6139   16.0148   46.7940 ca      1  CNT         0.000000
   1908 C          -0.6139   16.0148   46.0850 ca      1  CNT         0.000000
   1909 C          -1.8380   15.9208   46.7940 ca      1  CNT         0.000000
   1910 C          -3.0513   15.7334   46.0850 ca      1  CNT         0.000000
   1911 C          -4.2467   15.4537   46.7940 ca      1  CNT         0.000000
   1912 C          -5.4173   15.0833   46.0850 ca      1  CNT         0.000000
   1913 C          -6.5560   14.6243   46.7940 ca      1  CNT         0.000000
   1914 C          -7.6562   14.0795   46.0850 ca      1  CNT         0.000000
   1915 C          -8.7115   13.4522   46.7940 ca      1  CNT         0.000000
   1916 C          -9.7157   12.7458   46.0850 ca      1  CNT         0.000000
   1917 C         -10.6629   11.9647   46.7940 ca      1  CNT         0.000000
   1918 C         -11.5475   11.1134   46.0850 ca      1  CNT         0.000000
   1919 C         -12.3643   10.1968   46.7940 ca      1  CNT         0.000000
   1920 C         -13.1086    9.2204   46.0850 ca      1  CNT         0.000000
   1921 C         -13.7760    8.1899   46.7940 ca      1  CNT         0.000000
   1922 C         -14.3625    7.1113   46.0850 ca      1  CNT         0.000000
   1923 C         -14.8647    5.9910   46.7940 ca      1  CNT         0.000000
   1924 C         -15.2797    4.8355   46.0850 ca      1  CNT         0.000000
   1925 C         -15.6050    3.6517   46.7940 ca      1  CNT         0.000000
   1926 C         -15.8388    2.4464   46.0850 ca      1  CNT         0.000000
   1927 C         -15.9796    1.2268   46.7940 ca      1  CNT         0.000000
   1928 C         -16.0266    0.0000   46.0850 ca      1  CNT         0.000000
   1929 C         -15.9796   -1.2268   46.7940 ca      1  CNT         0.000000
   1930 C         -15.8388   -2.4464   46.0850 ca      1  CNT         0.000000
   1931 C         -15.6050   -3.6517   46.7940 ca      1  CNT         0.000000
   1932 C         -15.2797   -4.8355   46.0850 ca      1  CNT         0.000000
   1933 C         -14.8647   -5.9910   46.7940 ca      1  CNT         0.000000
   1934 C         -14.3625   -7.1113   46.0850 ca      1  CNT         0.000000
   1935 C         -13.7760   -8.1899   46.7940 ca      1  CNT         0.000000
   1936 C         -13.1086   -9.2204   46.0850 ca      1  CNT         0.000000
   1937 C         -12.3643  -10.1968   46.7940 ca      1  CNT         0.000000
   1938 C         -11.5475  -11.1134   46.0850 ca      1  CNT         0.000000
   1939 C         -10.6629  -11.9647   46.7940 ca      1  CNT         0.000000
   1940 C          -9.7157  -12.7458   46.0850 ca      1  CNT         0.000000
   1941 C          -8.7115  -13.4522   46.7940 ca      1  CNT         0.000000
   1942 C          -7.6562  -14.0795   46.0850 ca      1  CNT         0.000000
   1943 C          -6.5560  -14.6243   46.7940 ca      1  CNT         0.000000
   1944 C          -5.4173  -15.0833   46.0850 ca      1  CNT         0.000000
   1945 C          -4.2467  -15.4537   46.7940 ca      1  CNT         0.000000
   1946 C          -3.0513  -15.7334   46.0850 ca      1  CNT         0.000000
   1947 C          -1.8380  -15.9208   46.7940 ca      1  CNT         0.000000
   1948 C          -0.6139  -16.0148   46.0850 ca      1  CNT         0.000000
   1949 C           0.6139  -16.0148   46.7940 ca      1  CNT         0.000000
   1950 C           1.8380  -15.9208   46.0850 ca      1  CNT         0.000000
   1951 C           3.0513  -15.7334   46.7940 ca      1  CNT         0.000000
   1952 C           4.2467  -15.4537   46.0850 ca      1  CNT         0.000000
   1953 C           5.4173  -15.0833   46.7940 ca      1  CNT         0.000000
   1954 C           6.5560  -14.6243   46.0850 ca      1  CNT         0.000000
   1955 C           7.6562  -14.0795   46.7940 ca      1  CNT         0.000000
   1956 C           8.7115  -13.4522   46.0850 ca      1  CNT         0.000000
   1957 C           9.7157  -12.7458   46.7940 ca      1  CNT         0.000000
   1958 C          10.6629  -11.9647   46.0850 ca      1  CNT         0.000000
   1959 C          11.5475  -11.1134   46.7940 ca      1  CNT         0.000000
   1960 C          12.3643  -10.1968   46.0850 ca      1  CNT         0.000000
   1961 C          13.1086   -9.2204   46.7940 ca      1  CNT         0.000000
   1962 C          13.7760   -8.1899   46.0850 ca      1  CNT         0.000000
   1963 C          14.3625   -7.1113   46.7940 ca      1  CNT         0.000000
   1964 C          14.8647   -5.9910   46.0850 ca      1  CNT         0.000000
   1965 C          15.2797   -4.8355   46.7940 ca      1  CNT         0.000000
   1966 C          15.6050   -3.6517   46.0850 ca      1  CNT         0.000000
   1967 C          15.8388   -2.4464   46.7940 ca      1  CNT         0.000000
   1968 C          15.9796   -1.2268   46.0850 ca      1  CNT         0.000000
   1969 C          15.9796    1.2268   53.1750 ca      1  CNT         0.000000
   1970 C          15.8388    2.4464   52.4660 ca      1  CNT         0.000000
   1971 C          15.6050    3.6517   53.1750 ca      1  CNT         0.000000
   1972 C          15.2797    4.8355   52.4660 ca      1  CNT         0.000000
   1973 C          14.8647    5.9910   53.1750 ca      1  CNT         0.000000
   1974 C          14.3625    7.1113   52.4660 ca      1  CNT         0.000000
   1975 C          13.7760    8.1899   53.1750 ca      1  CNT         0.000000
   1976 C          13.1086    9.2204   52.4660 ca      1  CNT         0.000000
   1977 C          12.3643   10.1968   53.1750 ca      1  CNT         0.000000
   1978 C          11.5475   11.1134   52.4660 ca      1  CNT         0.000000
   1979 C          10.6629   11.9647   53.1750 ca      1  CNT         0.000000
   1980 C           9.7157   12.7458   52.4660 ca      1  CNT         0.000000
   1981 C           8.7115   13.4522   53.1750 ca      1  CNT         0.000000
   1982 C           7.6562   14.0795   52.4660 ca      1  CNT         0.000000
   1983 C           6.5560   14.6243   53.1750 ca      1  CNT         0.000000
   1984 C           5.4173   15.0833   52.4660 ca      1  CNT         0.000000
   1985 C           4.2467   15.4537   53.1750 ca      1  CNT         0.000000
   1986 C           3.0513   15.7334   52.4660 ca      1  CNT         0.000000
   1987 C           1.8380   15.9208   53.1750 ca      1  CNT         0.000000
   1988 C           0.6139   16.0148   52.4660 ca      1  CNT         0.000000
   1989 C          -0.6139   16.0148   53.1750 ca      1  CNT         0.000000
   1990 C          -1.8380   15.9208   52.4660 ca      1  CNT         0.000000
   1991 C          -3.0513   15.7334   53.1750 ca      1  CNT         0.000000
   1992 C          -4.2467   15.4537   52.4660 ca      1  CNT         0.000000
   1993 C          -5.4173   15.0833   53.1750 ca      1  CNT         0.000000
   1994 C          -6.5560   14.6243   52.4660 ca      1  CNT         0.000000
   1995 C          -7.6562   14.0795   53.1750 ca      1  CNT         0.000000
   1996 C          -8.7115   13.4522   52.4660 ca      1  CNT         0.000000
   1997 C          -9.7157   12.7458   53.1750 ca      1  CNT         0.000000
   1998 C         -10.6629   11.9647   52.4660 ca      1  CNT         0.000000
   1999 C         -11.5475   11.1134   53.1750 ca      1  CNT         0.000000
   2000 C         -12.3643   10.1968   52.4660 ca      1  CNT         0.000000
   2001 C         -13.1086    9.2204   53.1750 ca      1  CNT         0.000000
   2002 C         -13.7760    8.1899   52.4660 ca      1  CNT         0.000000
   2003 C         -14.3625    7.1113   53.1750 ca      1  CNT         0.000000
   2004 C         -14.8647    5.9910   52.4660 ca      1  CNT         0.000000
   2005 C         -15.2797    4.8355   53.1750 ca      1  CNT         0.000000
   2006 C         -15.6050    3.6517   52.4660 ca      1  CNT         0.000000
   2007 C         -15.8388    2.4464   53.1750 ca      1  CNT         0.000000
   2008 C         -15.9796    1.2268   52.4660 ca      1  CNT         0.000000
   2009 C         -16.0266   -0.0000   53.1750 ca      1  CNT         0.000000
   2010 C         -15.9796   -1.2268   52.4660 ca      1  CNT         0.000000
   2011 C         -15.8388   -2.4464   53.1750 ca      1  CNT         0.000000
   2012 C         -15.6050   -3.6517   52.4660 ca      1  CNT         0.000000
   2013 C         -15.2797   -4.8355   53.1750 ca      1  CNT         0.000000
   2014 C         -14.8647   -5.9910   52.4660 ca      1  CNT         0.000000
   2015 C         -14.3625   -7.1113   53.1750 ca      1  CNT         0.000000
   2016 C         -13.7760   -8.1899   52.4660 ca      1  CNT         0.000000
   2017 C         -13.1086   -9.2204   53.1750 ca      1  CNT         0.000000
   2018 C         -12.3643  -10.1968   52.4660 ca      1  CNT         0.000000
   2019 C         -11.5475  -11.1134   53.1750 ca      1  CNT         0.000000
   2020 C         -10.6629  -11.9647   52.4660 ca      1  CNT         0.000000
   2021 C          -9.7157  -12.7458   53.1750 ca      1  CNT         0.000000
   2022 C          -8.7115  -13.4522   52.4660 ca      1  CNT         0.000000
   2023 C          -7.6562  -14.0795   53.1750 ca      1  CNT         0.000000
   2024 C          -6.5560  -14.6243   52.4660 ca      1  CNT         0.000000
   2025 C          -5.4173  -15.0833   53.1750 ca      1  CNT         0.000000
   2026 C          -4.2467  -15.4537   52.4660 ca      1  CNT         0.000000
   2027 C          -3.0513  -15.7334   53.1750 ca      1  CNT         0.000000
   2028 C          -1.8380  -15.9208   52.4660 ca      1  CNT         0.000000
   2029 C          -0.6139  -16.0148   53.1750 ca      1  CNT         0.000000
   2030 C           0.6139  -16.0148   52.4660 ca      1  CNT         0.000000
   2031 C           1.8380  -15.9208   53.1750 ca      1  CNT         0.000000
   2032 C           3.0513  -15.7334   52.4660 ca      1  CNT         0.000000
   2033 C           4.2467  -15.4537   53.1750 ca      1  CNT         0.000000
   2034 C           5.4173  -15.0833   52.4660 ca      1  CNT         0.000000
   2035 C           6.5560  -14.6243   53.1750 ca      1  CNT         0.000000
   2036 C           7.6562  -14.0795   52.4660 ca      1  CNT         0.000000
   2037 C           8.7115  -13.4522   53.1750 ca      1  CNT         0.000000
   2038 C           9.7157  -12.7458   52.4660 ca      1  CNT         0.000000
   2039 C          10.6629  -11.9647   53.1750 ca      1  CNT         0.000000
   2040 C          11.5475  -11.1134   52.4660 ca      1  CNT         0.000000
   2041 C          12.3643  -10.1968   53.1750 ca      1  CNT         0.000000
   2042 C          13.1086   -9.2204   52.4660 ca      1  CNT         0.000000
   2043 C          13.7760   -8.1899   53.1750 ca      1  CNT         0.000000
   2044 C          14.3625   -7.1113   52.4660 ca      1  CNT         0.000000
   2045 C          14.8647   -5.9910   53.1750 ca      1  CNT         0.000000
   2046 C          15.2797   -4.8355   52.4660 ca      1  CNT         0.000000
   2047 C          15.6050   -3.6517   53.1750 ca      1  CNT         0.000000
   2048 C          15.8388   -2.4464   52.4660 ca      1  CNT         0.000000
   2049 C          15.9796   -1.2268   53.1750 ca      1  CNT         0.000000
   2050 C          16.0266   -0.0000   52.4660 ca      1  CNT         0.000000
   2051 C          16.0266    0.0000   51.0480 ca      1  CNT         0.000000
   2052 C          15.9796    1.2268   50.3390 ca      1  CNT         0.000000
   2053 C          15.8388    2.4464   51.0480 ca      1  CNT         0.000000
   2054 C          15.6050    3.6517   50.3390 ca      1  CNT         0.000000
   2055 C          15.2797    4.8355   51.0480 ca      1  CNT         0.000000
   2056 C          14.8647    5.9910   50.3390 ca      1  CNT         0.000000
   2057 C          14.3625    7.1113   51.0480 ca      1  CNT         0.000000
   2058 C          13.7760    8.1899   50.3390 ca      1  CNT         0.000000
   2059 C          13.1086    9.2204   51.0480 ca      1  CNT         0.000000
   2060 C          12.3643   10.1968   50.3390 ca      1  CNT         0.000000
   2061 C          11.5475   11.1134   51.0480 ca      1  CNT         0.000000
   2062 C          10.6629   11.9647   50.3390 ca      1  CNT         0.000000
   2063 C           9.7157   12.7458   51.0480 ca      1  CNT         0.000000
   2064 C           8.7115   13.4522   50.3390 ca      1  CNT         0.000000
   2065 C           7.6562   14.0795   51.0480 ca      1  CNT         0.000000
   2066 C           6.5560   14.6243   50.3390 ca      1  CNT         0.000000
   2067 C           5.4173   15.0833   51.0480 ca      1  CNT         0.000000
   2068 C           4.2467   15.4537   50.3390 ca      1  CNT         0.000000
   2069 C           3.0513   15.7334   51.0480 ca      1  CNT         0.000000
   2070 C           1.8380   15.9208   50.3390 ca      1  CNT         0.000000
   2071 C           0.6139   16.0148   51.0480 ca      1  CNT         0.000000
   2072 C          -0.6139   16.0148   50.3390 ca      1  CNT         0.000000
   2073 C          -1.8380   15.9208   51.0480 ca      1  CNT         0.000000
   2074 C          -3.0513   15.7334   50.3390 ca      1  CNT         0.000000
   2075 C          -4.2467   15.4537   51.0480 ca      1  CNT         0.000000
   2076 C          -5.4173   15.0833   50.3390 ca      1  CNT         0.000000
   2077 C          -6.5560   14.6243   51.0480 ca      1  CNT         0.000000
   2078 C          -7.6562   14.0795   50.3390 ca      1  CNT         0.000000
   2079 C          -8.7115   13.4522   51.0480 ca      1  CNT         0.000000
   2080 C          -9.7157   12.7458   50.3390 ca      1  CNT         0.000000
   2081 C         -10.6629   11.9647   51.0480 ca      1  CNT         0.000000
   2082 C         -11.5475   11.1134   50.3390 ca      1  CNT         0.000000
   2083 C         -12.3643   10.1968   51.0480 ca      1  CNT         0.000000
   2084 C         -13.1086    9.2204   50.3390 ca      1  CNT         0.000000
   2085 C         -13.7760    8.1899   51.0480 ca      1  CNT         0.000000
   2086 C         -14.3625    7.1113   50.3390 ca      1  CNT         0.000000
   2087 C         -14.8647    5.9910   51.0480 ca      1  CNT         0.000000
   2088 C         -15.2797    4.8355   50.3390 ca      1  CNT         0.000000
   2089 C         -15.6050    3.6517   51.0480 ca      1  CNT         0.000000
   2090 C         -15.8388    2.4464   50.3390 ca      1  CNT         0.000000
   2091 C         -15.9796    1.2268   51.0480 ca      1  CNT         0.000000
   2092 C         -16.0266    0.0000   50.3390 ca      1  CNT         0.000000
   2093 C         -15.9796   -1.2268   51.0480 ca      1  CNT         0.000000
   2094 C         -15.8388   -2.4464   50.3390 ca      1  CNT         0.000000
   2095 C         -15.6050   -3.6517   51.0480 ca      1  CNT         0.000000
   2096 C         -15.2797   -4.8355   50.3390 ca      1  CNT         0.000000
   2097 C         -14.8647   -5.9910   51.0480 ca      1  CNT         0.000000
   2098 C         -14.3625   -7.1113   50.3390 ca      1  CNT         0.000000
   2099 C         -13.7760   -8.1899   51.0480 ca      1  CNT         0.000000
   2100 C         -13.1086   -9.2204   50.3390 ca      1  CNT         0.000000
   2101 C         -12.3643  -10.1968   51.0480 ca      1  CNT         0.000000
   2102 C         -11.5475  -11.1134   50.3390 ca      1  CNT         0.000000
   2103 C         -10.6629  -11.9647   51.0480 ca      1  CNT         0.000000
   2104 C          -9.7157  -12.7458   50.3390 ca      1  CNT         0.000000
   2105 C          -8.7115  -13.4522   51.0480 ca      1  CNT         0.000000
   2106 C          -7.6562  -14.0795   50.3390 ca      1  CNT         0.000000
   2107 C          -6.5560  -14.6243   51.0480 ca      1  CNT         0.000000
   2108 C          -5.4173  -15.0833   50.3390 ca      1  CNT         0.000000
   2109 C          -4.2467  -15.4537   51.0480 ca      1  CNT         0.000000
   2110 C          -3.0513  -15.7334   50.3390 ca      1  CNT         0.000000
   2111 C          -1.8380  -15.9208   51.0480 ca      1  CNT         0.000000
   2112 C          -0.6139  -16.0148   50.3390 ca      1  CNT         0.000000
   2113 C           0.6139  -16.0148   51.0480 ca      1  CNT         0.000000
   2114 C           1.8380  -15.9208   50.3390 ca      1  CNT         0.000000
   2115 C           3.0513  -15.7334   51.0480 ca      1  CNT         0.000000
   2116 C           4.2467  -15.4537   50.3390 ca      1  CNT         0.000000
   2117 C           5.4173  -15.0833   51.0480 ca      1  CNT         0.000000
   2118 C           6.5560  -14.6243   50.3390 ca      1  CNT         0.000000
   2119 C           7.6562  -14.0795   51.0480 ca      1  CNT         0.000000
   2120 C           8.7115  -13.4522   50.3390 ca      1  CNT         0.000000
   2121 C           9.7157  -12.7458   51.0480 ca      1  CNT         0.000000
   2122 C          10.6629  -11.9647   50.3390 ca      1  CNT         0.000000
   2123 C          11.5475  -11.1134   51.0480 ca      1  CNT         0.000000
   2124 C          12.3643  -10.1968   50.3390 ca      1  CNT         0.000000
   2125 C          13.1086   -9.2204   51.0480 ca      1  CNT         0.000000
   2126 C          13.7760   -8.1899   50.3390 ca      1  CNT         0.000000
   2127 C          14.3625   -7.1113   51.0480 ca      1  CNT         0.000000
   2128 C          14.8647   -5.9910   50.3390 ca      1  CNT         0.000000
   2129 C          15.2797   -4.8355   51.0480 ca      1  CNT         0.000000
   2130 C          15.6050   -3.6517   50.3390 ca      1  CNT         0.000000
   2131 C          15.8388   -2.4464   51.0480 ca      1  CNT         0.000000
   2132 C          15.9796   -1.2268   50.3390 ca      1  CNT         0.000000
   2133 C          15.9796    1.2268   57.4290 ca      1  CNT         0.000000
   2134 C          15.8388    2.4464   56.7200 ca      1  CNT         0.000000
   2135 C          15.6050    3.6517   57.4290 ca      1  CNT         0.000000
   2136 C          15.2797    4.8355   56.7200 ca      1  CNT         0.000000
   2137 C          14.8647    5.9910   57.4290 ca      1  CNT         0.000000
   2138 C          14.3625    7.1113   56.7200 ca      1  CNT         0.000000
   2139 C          13.7760    8.1899   57.4290 ca      1  CNT         0.000000
   2140 C          13.1086    9.2204   56.7200 ca      1  CNT         0.000000
   2141 C          12.3643   10.1968   57.4290 ca      1  CNT         0.000000
   2142 C          11.5475   11.1134   56.7200 ca      1  CNT         0.000000
   2143 C          10.6629   11.9647   57.4290 ca      1  CNT         0.000000
   2144 C           9.7157   12.7458   56.7200 ca      1  CNT         0.000000
   2145 C           8.7115   13.4522   57.4290 ca      1  CNT         0.000000
   2146 C           7.6562   14.0795   56.7200 ca      1  CNT         0.000000
   2147 C           6.5560   14.6243   57.4290 ca      1  CNT         0.000000
   2148 C           5.4173   15.0833   56.7200 ca      1  CNT         0.000000
   2149 C           4.2467   15.4537   57.4290 ca      1  CNT         0.000000
   2150 C           3.0513   15.7334   56.7200 ca      1  CNT         0.000000
   2151 C           1.8380   15.9208   57.4290 ca      1  CNT         0.000000
   2152 C           0.6139   16.0148   56.7200 ca      1  CNT         0.000000
   2153 C          -0.6139   16.0148   57.4290 ca      1  CNT         0.000000
   2154 C          -1.8380   15.9208   56.7200 ca      1  CNT         0.000000
   2155 C          -3.0513   15.7334   57.4290 ca      1  CNT         0.000000
   2156 C          -4.2467   15.4537   56.7200 ca      1  CNT         0.000000
   2157 C          -5.4173   15.0833   57.4290 ca      1  CNT         0.000000
   2158 C          -6.5560   14.6243   56.7200 ca      1  CNT         0.000000
   2159 C          -7.6562   14.0795   57.4290 ca      1  CNT         0.000000
   2160 C          -8.7115   13.4522   56.7200 ca      1  CNT         0.000000
   2161 C          -9.7157   12.7458   57.4290 ca      1  CNT         0.000000
   2162 C         -10.6629   11.9647   56.7200 ca      1  CNT         0.000000
   2163 C         -11.5475   11.1134   57.4290 ca      1  CNT         0.000000
   2164 C         -12.3643   10.1968   56.7200 ca      1  CNT         0.000000
   2165 C         -13.1086    9.2204   57.4290 ca      1  CNT         0.000000
   2166 C         -13.7760    8.1899   56.7200 ca      1  CNT         0.000000
   2167 C         -14.3625    7.1113   57.4290 ca      1  CNT         0.000000
   2168 C         -14.8647    5.9910   56.7200 ca      1  CNT         0.000000
   2169 C         -15.2797    4.8355   57.4290 ca      1  CNT         0.000000
   2170 C         -15.6050    3.6517   56.7200 ca      1  CNT         0.000000
   2171 C         -15.8388    2.4464   57.4290 ca      1  CNT         0.000000
   2172 C         -15.9796    1.2268   56.7200 ca      1  CNT         0.000000
   2173 C         -16.0266   -0.0000   57.4290 ca      1  CNT         0.000000
   2174 C         -15.9796   -1.2268   56.7200 ca      1  CNT         0.000000
   2175 C         -15.8388   -2.4464   57.4290 ca      1  CNT         0.000000
   2176 C         -15.6050   -3.6517   56.7200 ca      1  CNT         0.000000
   2177 C         -15.2797   -4.8355   57.4290 ca      1  CNT         0.000000
   2178 C         -14.8647   -5.9910   56.7200 ca      1  CNT         0.000000
   2179 C         -14.3625   -7.1113   57.4290 ca      1  CNT         0.000000
   2180 C         -13.7760   -8.1899   56.7200 ca      1  CNT         0.000000
   2181 C         -13.1086   -9.2204   57.4290 ca      1  CNT         0.000000
   2182 C         -12.3643  -10.1968   56.7200 ca      1  CNT         0.000000
   2183 C         -11.5475  -11.1134   57.4290 ca      1  CNT         0.000000
   2184 C         -10.6629  -11.9647   56.7200 ca      1  CNT         0.000000
   2185 C          -9.7157  -12.7458   57.4290 ca      1  CNT         0.000000
   2186 C          -8.7115  -13.4522   56.7200 ca      1  CNT         0.000000
   2187 C          -7.6562  -14.0795   57.4290 ca      1  CNT         0.000000
   2188 C          -6.5560  -14.6243   56.7200 ca      1  CNT         0.000000
   2189 C          -5.4173  -15.0833   57.4290 ca      1  CNT         0.000000
   2190 C          -4.2467  -15.4537   56.7200 ca      1  CNT         0.000000
   2191 C          -3.0513  -15.7334   57.4290 ca      1  CNT         0.000000
   2192 C          -1.8380  -15.9208   56.7200 ca      1  CNT         0.000000
   2193 C          -0.6139  -16.0148   57.4290 ca      1  CNT         0.000000
   2194 C           0.6139  -16.0148   56.7200 ca      1  CNT         0.000000
   2195 C           1.8380  -15.9208   57.4290 ca      1  CNT         0.000000
   2196 C           3.0513  -15.7334   56.7200 ca      1  CNT         0.000000
   2197 C           4.2467  -15.4537   57.4290 ca      1  CNT         0.000000
   2198 C           5.4173  -15.0833   56.7200 ca      1  CNT         0.000000
   2199 C           6.5560  -14.6243   57.4290 ca      1  CNT         0.000000
   2200 C           7.6562  -14.0795   56.7200 ca      1  CNT         0.000000
   2201 C           8.7115  -13.4522   57.4290 ca      1  CNT         0.000000
   2202 C           9.7157  -12.7458   56.7200 ca      1  CNT         0.000000
   2203 C          10.6629  -11.9647   57.4290 ca      1  CNT         0.000000
   2204 C          11.5475  -11.1134   56.7200 ca      1  CNT         0.000000
   2205 C          12.3643  -10.1968   57.4290 ca      1  CNT         0.000000
   2206 C          13.1086   -9.2204   56.7200 ca      1  CNT         0.000000
   2207 C          13.7760   -8.1899   57.4290 ca      1  CNT         0.000000
   2208 C          14.3625   -7.1113   56.7200 ca      1  CNT         0.000000
   2209 C          14.8647   -5.9910   57.4290 ca      1  CNT         0.000000
   2210 C          15.2797   -4.8355   56.7200 ca      1  CNT         0.000000
   2211 C          15.6050   -3.6517   57.4290 ca      1  CNT         0.000000
   2212 C          15.8388   -2.4464   56.7200 ca      1  CNT         0.000000
   2213 C          15.9796   -1.2268   57.4290 ca      1  CNT         0.000000
   2214 C          16.0266   -0.0000   56.7200 ca      1  CNT         0.000000
   2215 C          16.0266    0.0000   55.3020 ca      1  CNT         0.000000
   2216 C          15.9796    1.2268   54.5930 ca      1  CNT         0.000000
   2217 C          15.8388    2.4464   55.3020 ca      1  CNT         0.000000
   2218 C          15.6050    3.6517   54.5930 ca      1  CNT         0.000000
   2219 C          15.2797    4.8355   55.3020 ca      1  CNT         0.000000
   2220 C          14.8647    5.9910   54.5930 ca      1  CNT         0.000000
   2221 C          14.3625    7.1113   55.3020 ca      1  CNT         0.000000
   2222 C          13.7760    8.1899   54.5930 ca      1  CNT         0.000000
   2223 C          13.1086    9.2204   55.3020 ca      1  CNT         0.000000
   2224 C          12.3643   10.1968   54.5930 ca      1  CNT         0.000000
   2225 C          11.5475   11.1134   55.3020 ca      1  CNT         0.000000
   2226 C          10.6629   11.9647   54.5930 ca      1  CNT         0.000000
   2227 C           9.7157   12.7458   55.3020 ca      1  CNT         0.000000
   2228 C           8.7115   13.4522   54.5930 ca      1  CNT         0.000000
   2229 C           7.6562   14.0795   55.3020 ca      1  CNT         0.000000
   2230 C           6.5560   14.6243   54.5930 ca      1  CNT         0.000000
   2231 C           5.4173   15.0833   55.3020 ca      1  CNT         0.000000
   2232 C           4.2467   15.4537   54.5930 ca      1  CNT         0.000000
   2233 C           3.0513   15.7334   55.3020 ca      1  CNT         0.000000
   2234 C           1.8380   15.9208   54.5930 ca      1  CNT         0.000000
   2235 C           0.6139   16.0148   55.3020 ca      1  CNT         0.000000
   2236 C          -0.6139   16.0148   54.5930 ca      1  CNT         0.000000
   2237 C          -1.8380   15.9208   55.3020 ca      1  CNT         0.000000
   2238 C          -3.0513   15.7334   54.5930 ca      1  CNT         0.000000
   2239 C          -4.2467   15.4537   55.3020 ca      1  CNT         0.000000
   2240 C          -5.4173   15.0833   54.5930 ca      1  CNT         0.000000
   2241 C          -6.5560   14.6243   55.3020 ca      1  CNT         0.000000
   2242 C          -7.6562   14.0795   54.5930 ca      1  CNT         0.000000
   2243 C          -8.7115   13.4522   55.3020 ca      1  CNT         0.000000
   2244 C          -9.7157   12.7458   54.5930 ca      1  CNT         0.000000
   2245 C         -10.6629   11.9647   55.3020 ca      1  CNT         0.000000
   2246 C         -11.5475   11.1134   54.5930 ca      1  CNT         0.000000
   2247 C         -12.3643   10.1968   55.3020 ca      1  CNT         0.000000
   2248 C         -13.1086    9.2204   54.5930 ca      1  CNT         0.000000
   2249 C         -13.7760    8.1899   55.3020 ca      1  CNT         0.000000
   2250 C         -14.3625    7.1113   54.5930 ca      1  CNT         0.000000
   2251 C         -14.8647    5.9910   55.3020 ca      1  CNT         0.000000
   2252 C         -15.2797    4.8355   54.5930 ca      1  CNT         0.000000
   2253 C         -15.6050    3.6517   55.3020 ca      1  CNT         0.000000
   2254 C         -15.8388    2.4464   54.5930 ca      1  CNT         0.000000
   2255 C         -15.9796    1.2268   55.3020 ca      1  CNT         0.000000
   2256 C         -16.0266    0.0000   54.5930 ca      1  CNT         0.000000
   2257 C         -15.9796   -1.2268   55.3020 ca      1  CNT         0.000000
   2258 C         -15.8388   -2.4464   54.5930 ca      1  CNT         0.000000
   2259 C         -15.6050   -3.6517   55.3020 ca      1  CNT         0.000000
   2260 C         -15.2797   -4.8355   54.5930 ca      1  CNT         0.000000
   2261 C         -14.8647   -5.9910   55.3020 ca      1  CNT         0.000000
   2262 C         -14.3625   -7.1113   54.5930 ca      1  CNT         0.000000
   2263 C         -13.7760   -8.1899   55.3020 ca      1  CNT         0.000000
   2264 C         -13.1086   -9.2204   54.5930 ca      1  CNT         0.000000
   2265 C         -12.3643  -10.1968   55.3020 ca      1  CNT         0.000000
   2266 C         -11.5475  -11.1134   54.5930 ca      1  CNT         0.000000
   2267 C         -10.6629  -11.9647   55.3020 ca      1  CNT         0.000000
   2268 C          -9.7157  -12.7458   54.5930 ca      1  CNT         0.000000
   2269 C          -8.7115  -13.4522   55.3020 ca      1  CNT         0.000000
   2270 C          -7.6562  -14.0795   54.5930 ca      1  CNT         0.000000
   2271 C          -6.5560  -14.6243   55.3020 ca      1  CNT         0.000000
   2272 C          -5.4173  -15.0833   54.5930 ca      1  CNT         0.000000
   2273 C          -4.2467  -15.4537   55.3020 ca      1  CNT         0.000000
   2274 C          -3.0513  -15.7334   54.5930 ca      1  CNT         0.000000
   2275 C          -1.8380  -15.9208   55.3020 ca      1  CNT         0.000000
   2276 C          -0.6139  -16.0148   54.5930 ca      1  CNT         0.000000
   2277 C           0.6139  -16.0148   55.3020 ca      1  CNT         0.000000
   2278 C           1.8380  -15.9208   54.5930 ca      1  CNT         0.000000
   2279 C           3.0513  -15.7334   55.3020 ca      1  CNT         0.000000
   2280 C           4.2467  -15.4537   54.5930 ca      1  CNT         0.000000
   2281 C           5.4173  -15.0833   55.3020 ca      1  CNT         0.000000
   2282 C           6.5560  -14.6243   54.5930 ca      1  CNT         0.000000
   2283 C           7.6562  -14.0795   55.3020 ca      1  CNT         0.000000
   2284 C           8.7115  -13.4522   54.5930 ca      1  CNT         0.000000
   2285 C           9.7157  -12.7458   55.3020 ca      1  CNT         0.000000
   2286 C          10.6629  -11.9647   54.5930 ca      1  CNT         0.000000
   2287 C          11.5475  -11.1134   55.3020 ca      1  CNT         0.000000
   2288 C          12.3643  -10.1968   54.5930 ca      1  CNT         0.000000
   2289 C          13.1086   -9.2204   55.3020 ca      1  CNT         0.000000
   2290 C          13.7760   -8.1899   54.5930 ca      1  CNT         0.000000
   2291 C          14.3625   -7.1113   55.3020 ca      1  CNT         0.000000
   2292 C          14.8647   -5.9910   54.5930 ca      1  CNT         0.000000
   2293 C          15.2797   -4.8355   55.3020 ca      1  CNT         0.000000
   2294 C          15.6050   -3.6517   54.5930 ca      1  CNT         0.000000
   2295 C          15.8388   -2.4464   55.3020 ca      1  CNT         0.000000
   2296 C          15.9796   -1.2268   54.5930 ca      1  CNT         0.000000
   2297 C          15.9796    1.2268   61.6830 ca      1  CNT         0.000000
   2298 C          15.8388    2.4464   60.9740 ca      1  CNT         0.000000
   2299 C          15.6050    3.6517   61.6830 ca      1  CNT         0.000000
   2300 C          15.2797    4.8355   60.9740 ca      1  CNT         0.000000
   2301 C          14.8647    5.9910   61.6830 ca      1  CNT         0.000000
   2302 C          14.3625    7.1113   60.9740 ca      1  CNT         0.000000
   2303 C          13.7760    8.1899   61.6830 ca      1  CNT         0.000000
   2304 C          13.1086    9.2204   60.9740 ca      1  CNT         0.000000
   2305 C          12.3643   10.1968   61.6830 ca      1  CNT         0.000000
   2306 C          11.5475   11.1134   60.9740 ca      1  CNT         0.000000
   2307 C          10.6629   11.9647   61.6830 ca      1  CNT         0.000000
   2308 C           9.7157   12.7458   60.9740 ca      1  CNT         0.000000
   2309 C           8.7115   13.4522   61.6830 ca      1  CNT         0.000000
   2310 C           7.6562   14.0795   60.9740 ca      1  CNT         0.000000
   2311 C           6.5560   14.6243   61.6830 ca      1  CNT         0.000000
   2312 C           5.4173   15.0833   60.9740 ca      1  CNT         0.000000
   2313 C           4.2467   15.4537   61.6830 ca      1  CNT         0.000000
   2314 C           3.0513   15.7334   60.9740 ca      1  CNT         0.000000
   2315 C           1.8380   15.9208   61.6830 ca      1  CNT         0.000000
   2316 C           0.6139   16.0148   60.9740 ca      1  CNT         0.000000
   2317 C          -0.6139   16.0148   61.6830 ca      1  CNT         0.000000
   2318 C          -1.8380   15.9208   60.9740 ca      1  CNT         0.000000
   2319 C          -3.0513   15.7334   61.6830 ca      1  CNT         0.000000
   2320 C          -4.2467   15.4537   60.9740 ca      1  CNT         0.000000
   2321 C          -5.4173   15.0833   61.6830 ca      1  CNT         0.000000
   2322 C          -6.5560   14.6243   60.9740 ca      1  CNT         0.000000
   2323 C          -7.6562   14.0795   61.6830 ca      1  CNT         0.000000
   2324 C          -8.7115   13.4522   60.9740 ca      1  CNT         0.000000
   2325 C          -9.7157   12.7458   61.6830 ca      1  CNT         0.000000
   2326 C         -10.6629   11.9647   60.9740 ca      1  CNT         0.000000
   2327 C         -11.5475   11.1134   61.6830 ca      1  CNT         0.000000
   2328 C         -12.3643   10.1968   60.9740 ca      1  CNT         0.000000
   2329 C         -13.1086    9.2204   61.6830 ca      1  CNT         0.000000
   2330 C         -13.7760    8.1899   60.9740 ca      1  CNT         0.000000
   2331 C         -14.3625    7.1113   61.6830 ca      1  CNT         0.000000
   2332 C         -14.8647    5.9910   60.9740 ca      1  CNT         0.000000
   2333 C         -15.2797    4.8355   61.6830 ca      1  CNT         0.000000
   2334 C         -15.6050    3.6517   60.9740 ca      1  CNT         0.000000
   2335 C         -15.8388    2.4464   61.6830 ca      1  CNT         0.000000
   2336 C         -15.9796    1.2268   60.9740 ca      1  CNT         0.000000
   2337 C         -16.0266   -0.0000   61.6830 ca      1  CNT         0.000000
   2338 C         -15.9796   -1.2268   60.9740 ca      1  CNT         0.000000
   2339 C         -15.8388   -2.4464   61.6830 ca      1  CNT         0.000000
   2340 C         -15.6050   -3.6517   60.9740 ca      1  CNT         0.000000
   2341 C         -15.2797   -4.8355   61.6830 ca      1  CNT         0.000000
   2342 C         -14.8647   -5.9910   60.9740 ca      1  CNT         0.000000
   2343 C         -14.3625   -7.1113   61.6830 ca      1  CNT         0.000000
   2344 C         -13.7760   -8.1899   60.9740 ca      1  CNT         0.000000
   2345 C         -13.1086   -9.2204   61.6830 ca      1  CNT         0.000000
   2346 C         -12.3643  -10.1968   60.9740 ca      1  CNT         0.000000
   2347 C         -11.5475  -11.1134   61.6830 ca      1  CNT         0.000000
   2348 C         -10.6629  -11.9647   60.9740 ca      1  CNT         0.000000
   2349 C          -9.7157  -12.7458   61.6830 ca      1  CNT         0.000000
   2350 C          -8.7115  -13.4522   60.9740 ca      1  CNT         0.000000
   2351 C          -7.6562  -14.0795   61.6830 ca      1  CNT         0.000000
   2352 C          -6.5560  -14.6243   60.9740 ca      1  CNT         0.000000
   2353 C          -5.4173  -15.0833   61.6830 ca      1  CNT         0.000000
   2354 C          -4.2467  -15.4537   60.9740 ca      1  CNT         0.000000
   2355 C          -3.0513  -15.7334   61.6830 ca      1  CNT         0.000000
   2356 C          -1.8380  -15.9208   60.9740 ca      1  CNT         0.000000
   2357 C          -0.6139  -16.0148   61.6830 ca      1  CNT         0.000000
   2358 C           0.6139  -16.0148   60.9740 ca      1  CNT         0.000000
   2359 C           1.8380  -15.9208   61.6830 ca      1  CNT         0.000000
   2360 C           3.0513  -15.7334   60.9740 ca      1  CNT         0.000000
   2361 C           4.2467  -15.4537   61.6830 ca      1  CNT         0.000000
   2362 C           5.4173  -15.0833   60.9740 ca      1  CNT         0.000000
   2363 C           6.5560  -14.6243   61.6830 ca      1  CNT         0.000000
   2364 C           7.6562  -14.0795   60.9740 ca      1  CNT         0.000000
   2365 C           8.7115  -13.4522   61.6830 ca      1  CNT         0.000000
   2366 C           9.7157  -12.7458   60.9740 ca      1  CNT         0.000000
   2367 C          10.6629  -11.9647   61.6830 ca      1  CNT         0.000000
   2368 C          11.5475  -11.1134   60.9740 ca      1  CNT         0.000000
   2369 C          12.3643  -10.1968   61.6830 ca      1  CNT         0.000000
   2370 C          13.1086   -9.2204   60.9740 ca      1  CNT         0.000000
   2371 C          13.7760   -8.1899   61.6830 ca      1  CNT         0.000000
   2372 C          14.3625   -7.1113   60.9740 ca      1  CNT         0.000000
   2373 C          14.8647   -5.9910   61.6830 ca      1  CNT         0.000000
   2374 C          15.2797   -4.8355   60.9740 ca      1  CNT         0.000000
   2375 C          15.6050   -3.6517   61.6830 ca      1  CNT         0.000000
   2376 C          15.8388   -2.4464   60.9740 ca      1  CNT         0.000000
   2377 C          15.9796   -1.2268   61.6830 ca      1  CNT         0.000000
   2378 C          16.0266   -0.0000   60.9740 ca      1  CNT         0.000000
   2379 C          16.0266    0.0000   59.5560 ca      1  CNT         0.000000
   2380 C          15.9796    1.2268   58.8470 ca      1  CNT         0.000000
   2381 C          15.8388    2.4464   59.5560 ca      1  CNT         0.000000
   2382 C          15.6050    3.6517   58.8470 ca      1  CNT         0.000000
   2383 C          15.2797    4.8355   59.5560 ca      1  CNT         0.000000
   2384 C          14.8647    5.9910   58.8470 ca      1  CNT         0.000000
   2385 C          14.3625    7.1113   59.5560 ca      1  CNT         0.000000
   2386 C          13.7760    8.1899   58.8470 ca      1  CNT         0.000000
   2387 C          13.1086    9.2204   59.5560 ca      1  CNT         0.000000
   2388 C          12.3643   10.1968   58.8470 ca      1  CNT         0.000000
   2389 C          11.5475   11.1134   59.5560 ca      1  CNT         0.000000
   2390 C          10.6629   11.9647   58.8470 ca      1  CNT         0.000000
   2391 C           9.7157   12.7458   59.5560 ca      1  CNT         0.000000
   2392 C           8.7115   13.4522   58.8470 ca      1  CNT         0.000000
   2393 C           7.6562   14.0795   59.5560 ca      1  CNT         0.000000
   2394 C           6.5560   14.6243   58.8470 ca      1  CNT         0.000000
   2395 C           5.4173   15.0833   59.5560 ca      1  CNT         0.000000
   2396 C           4.2467   15.4537   58.8470 ca      1  CNT         0.000000
   2397 C           3.0513   15.7334   59.5560 ca      1  CNT         0.000000
   2398 C           1.8380   15.9208   58.8470 ca      1  CNT         0.000000
   2399 C           0.6139   16.0148   59.5560 ca      1  CNT         0.000000
   2400 C          -0.6139   16.0148   58.8470 ca      1  CNT         0.000000
   2401 C          -1.8380   15.9208   59.5560 ca      1  CNT         0.000000
   2402 C          -3.0513   15.7334   58.8470 ca      1  CNT         0.000000
   2403 C          -4.2467   15.4537   59.5560 ca      1  CNT         0.000000
   2404 C          -5.4173   15.0833   58.8470 ca      1  CNT         0.000000
   2405 C          -6.5560   14.6243   59.5560 ca      1  CNT         0.000000
   2406 C          -7.6562   14.0795   58.8470 ca      1  CNT         0.000000
   2407 C          -8.7115   13.4522   59.5560 ca      1  CNT         0.000000
   2408 C          -9.7157   12.7458   58.8470 ca      1  CNT         0.000000
   2409 C         -10.6629   11.9647   59.5560 ca      1  CNT         0.000000
   2410 C         -11.5475   11.1134   58.8470 ca      1  CNT         0.000000
   2411 C         -12.3643   10.1968   59.5560 ca      1  CNT         0.000000
   2412 C         -13.1086    9.2204   58.8470 ca      1  CNT         0.000000
   2413 C         -13.7760    8.1899   59.5560 ca      1  CNT         0.000000
   2414 C         -14.3625    7.1113   58.8470 ca      1  CNT         0.000000
   2415 C         -14.8647    5.9910   59.5560 ca      1  CNT         0.000000
   2416 C         -15.2797    4.8355   58.8470 ca      1  CNT         0.000000
   2417 C         -15.6050    3.6517   59.5560 ca      1  CNT         0.000000
   2418 C         -15.8388    2.4464   58.8470 ca      1  CNT         0.000000
   2419 C         -15.9796    1.2268   59.5560 ca      1  CNT         0.000000
   2420 C         -16.0266    0.0000   58.8470 ca      1  CNT         0.000000
   2421 C         -15.9796   -1.2268   59.5560 ca      1  CNT         0.000000
   2422 C         -15.8388   -2.4464   58.8470 ca      1  CNT         0.000000
   2423 C         -15.6050   -3.6517   59.5560 ca      1  CNT         0.000000
   2424 C         -15.2797   -4.8355   58.8470 ca      1  CNT         0.000000
   2425 C         -14.8647   -5.9910   59.5560 ca      1  CNT         0.000000
   2426 C         -14.3625   -7.1113   58.8470 ca      1  CNT         0.000000
   2427 C         -13.7760   -8.1899   59.5560 ca      1  CNT         0.000000
   2428 C         -13.1086   -9.2204   58.8470 ca      1  CNT         0.000000
   2429 C         -12.3643  -10.1968   59.5560 ca      1  CNT         0.000000
   2430 C         -11.5475  -11.1134   58.8470 ca      1  CNT         0.000000
   2431 C         -10.6629  -11.9647   59.5560 ca      1  CNT         0.000000
   2432 C          -9.7157  -12.7458   58.8470 ca      1  CNT         0.000000
   2433 C          -8.7115  -13.4522   59.5560 ca      1  CNT         0.000000
   2434 C          -7.6562  -14.0795   58.8470 ca      1  CNT         0.000000
   2435 C          -6.5560  -14.6243   59.5560 ca      1  CNT         0.000000
   2436 C          -5.4173  -15.0833   58.8470 ca      1  CNT         0.000000
   2437 C          -4.2467  -15.4537   59.5560 ca      1  CNT         0.000000
   2438 C          -3.0513  -15.7334   58.8470 ca      1  CNT         0.000000
   2439 C          -1.8380  -15.9208   59.5560 ca      1  CNT         0.000000
   2440 C          -0.6139  -16.0148   58.8470 ca      1  CNT         0.000000
   2441 C           0.6139  -16.0148   59.5560 ca      1  CNT         0.000000
   2442 C           1.8380  -15.9208   58.8470 ca      1  CNT         0.000000
   2443 C           3.0513  -15.7334   59.5560 ca      1  CNT         0.000000
   2444 C           4.2467  -15.4537   58.8470 ca      1  CNT         0.000000
   2445 C           5.4173  -15.0833   59.5560 ca      1  CNT         0.000000
   2446 C           6.5560  -14.6243   58.8470 ca      1  CNT         0.000000
   2447 C           7.6562  -14.0795   59.5560 ca      1  CNT         0.000000
   2448 C           8.7115  -13.4522   58.8470 ca      1  CNT         0.000000
   2449 C           9.7157  -12.7458   59.5560 ca      1  CNT         0.000000
   2450 C          10.6629  -11.9647   58.8470 ca      1  CNT         0.000000
   2451 C          11.5475  -11.1134   59.5560 ca      1  CNT         0.000000
   2452 C          12.3643  -10.1968   58.8470 ca      1  CNT         0.000000
   2453 C          13.1086   -9.2204   59.5560 ca      1  CNT         0.000000
   2454 C          13.7760   -8.1899   58.8470 ca      1  CNT         0.000000
   2455 C          14.3625   -7.1113   59.5560 ca      1  CNT         0.000000
   2456 C          14.8647   -5.9910   58.8470 ca      1  CNT         0.000000
   2457 C          15.2797   -4.8355   59.5560 ca      1  CNT         0.000000
   2458 C          15.6050   -3.6517   58.8470 ca      1  CNT         0.000000
   2459 C          15.8388   -2.4464   59.5560 ca      1  CNT         0.000000
   2460 C          15.9796   -1.2268   58.8470 ca      1  CNT         0.000000
   2461 C          15.9796    1.2268   65.9370 ca      1  CNT         0.000000
   2462 C          15.8388    2.4464   65.2280 ca      1  CNT         0.000000
   2463 C          15.6050    3.6517   65.9370 ca      1  CNT         0.000000
   2464 C          15.2797    4.8355   65.2280 ca      1  CNT         0.000000
   2465 C          14.8647    5.9910   65.9370 ca      1  CNT         0.000000
   2466 C          14.3625    7.1113   65.2280 ca      1  CNT         0.000000
   2467 C          13.7760    8.1899   65.9370 ca      1  CNT         0.000000
   2468 C          13.1086    9.2204   65.2280 ca      1  CNT         0.000000
   2469 C          12.3643   10.1968   65.9370 ca      1  CNT         0.000000
   2470 C          11.5475   11.1134   65.2280 ca      1  CNT         0.000000
   2471 C          10.6629   11.9647   65.9370 ca      1  CNT         0.000000
   2472 C           9.7157   12.7458   65.2280 ca      1  CNT         0.000000
   2473 C           8.7115   13.4522   65.9370 ca      1  CNT         0.000000
   2474 C           7.6562   14.0795   65.2280 ca      1  CNT         0.000000
   2475 C           6.5560   14.6243   65.9370 ca      1  CNT         0.000000
   2476 C           5.4173   15.0833   65.2280 ca      1  CNT         0.000000
   2477 C           4.2467   15.4537   65.9370 ca      1  CNT         0.000000
   2478 C           3.0513   15.7334   65.2280 ca      1  CNT         0.000000
   2479 C           1.8380   15.9208   65.9370 ca      1  CNT         0.000000
   2480 C           0.6139   16.0148   65.2280 ca      1  CNT         0.000000
   2481 C          -0.6139   16.0148   65.9370 ca      1  CNT         0.000000
   2482 C          -1.8380   15.9208   65.2280 ca      1  CNT         0.000000
   2483 C          -3.0513   15.7334   65.9370 ca      1  CNT         0.000000
   2484 C          -4.2467   15.4537   65.2280 ca      1  CNT         0.000000
   2485 C          -5.4173   15.0833   65.9370 ca      1  CNT         0.000000
   2486 C          -6.5560   14.6243   65.2280 ca      1  CNT         0.000000
   2487 C          -7.6562   14.0795   65.9370 ca      1  CNT         0.000000
   2488 C          -8.7115   13.4522   65.2280 ca      1  CNT         0.000000
   2489 C          -9.7157   12.7458   65.9370 ca      1  CNT         0.000000
   2490 C         -10.6629   11.9647   65.2280 ca      1  CNT         0.000000
   2491 C         -11.5475   11.1134   65.9370 ca      1  CNT         0.000000
   2492 C         -12.3643   10.1968   65.2280 ca      1  CNT         0.000000
   2493 C         -13.1086    9.2204   65.9370 ca      1  CNT         0.000000
   2494 C         -13.7760    8.1899   65.2280 ca      1  CNT         0.000000
   2495 C         -14.3625    7.1113   65.9370 ca      1  CNT         0.000000
   2496 C         -14.8647    5.9910   65.2280 ca      1  CNT         0.000000
   2497 C         -15.2797    4.8355   65.9370 ca      1  CNT         0.000000
   2498 C         -15.6050    3.6517   65.2280 ca      1  CNT         0.000000
   2499 C         -15.8388    2.4464   65.9370 ca      1  CNT         0.000000
   2500 C         -15.9796    1.2268   65.2280 ca      1  CNT         0.000000
   2501 C         -16.0266   -0.0000   65.9370 ca      1  CNT         0.000000
   2502 C         -15.9796   -1.2268   65.2280 ca      1  CNT         0.000000
   2503 C         -15.8388   -2.4464   65.9370 ca      1  CNT         0.000000
   2504 C         -15.6050   -3.6517   65.2280 ca      1  CNT         0.000000
   2505 C         -15.2797   -4.8355   65.9370 ca      1  CNT         0.000000
   2506 C         -14.8647   -5.9910   65.2280 ca      1  CNT         0.000000
   2507 C         -14.3625   -7.1113   65.9370 ca      1  CNT         0.000000
   2508 C         -13.7760   -8.1899   65.2280 ca      1  CNT         0.000000
   2509 C         -13.1086   -9.2204   65.9370 ca      1  CNT         0.000000
   2510 C         -12.3643  -10.1968   65.2280 ca      1  CNT         0.000000
   2511 C         -11.5475  -11.1134   65.9370 ca      1  CNT         0.000000
   2512 C         -10.6629  -11.9647   65.2280 ca      1  CNT         0.000000
   2513 C          -9.7157  -12.7458   65.9370 ca      1  CNT         0.000000
   2514 C          -8.7115  -13.4522   65.2280 ca      1  CNT         0.000000
   2515 C          -7.6562  -14.0795   65.9370 ca      1  CNT         0.000000
   2516 C          -6.5560  -14.6243   65.2280 ca      1  CNT         0.000000
   2517 C          -5.4173  -15.0833   65.9370 ca      1  CNT         0.000000
   2518 C          -4.2467  -15.4537   65.2280 ca      1  CNT         0.000000
   2519 C          -3.0513  -15.7334   65.9370 ca      1  CNT         0.000000
   2520 C          -1.8380  -15.9208   65.2280 ca      1  CNT         0.000000
   2521 C          -0.6139  -16.0148   65.9370 ca      1  CNT         0.000000
   2522 C           0.6139  -16.0148   65.2280 ca      1  CNT         0.000000
   2523 C           1.8380  -15.9208   65.9370 ca      1  CNT         0.000000
   2524 C           3.0513  -15.7334   65.2280 ca      1  CNT         0.000000
   2525 C           4.2467  -15.4537   65.9370 ca      1  CNT         0.000000
   2526 C           5.4173  -15.0833   65.2280 ca      1  CNT         0.000000
   2527 C           6.5560  -14.6243   65.9370 ca      1  CNT         0.000000
   2528 C           7.6562  -14.0795   65.2280 ca      1  CNT         0.000000
   2529 C           8.7115  -13.4522   65.9370 ca      1  CNT         0.000000
   2530 C           9.7157  -12.7458   65.2280 ca      1  CNT         0.000000
   2531 C          10.6629  -11.9647   65.9370 ca      1  CNT         0.000000
   2532 C          11.5475  -11.1134   65.2280 ca      1  CNT         0.000000
   2533 C          12.3643  -10.1968   65.9370 ca      1  CNT         0.000000
   2534 C          13.1086   -9.2204   65.2280 ca      1  CNT         0.000000
   2535 C          13.7760   -8.1899   65.9370 ca      1  CNT         0.000000
   2536 C          14.3625   -7.1113   65.2280 ca      1  CNT         0.000000
   2537 C          14.8647   -5.9910   65.9370 ca      1  CNT         0.000000
   2538 C          15.2797   -4.8355   65.2280 ca      1  CNT         0.000000
   2539 C          15.6050   -3.6517   65.9370 ca      1  CNT         0.000000
   2540 C          15.8388   -2.4464   65.2280 ca      1  CNT         0.000000
   2541 C          15.9796   -1.2268   65.9370 ca      1  CNT         0.000000
   2542 C          16.0266   -0.0000   65.2280 ca      1  CNT         0.000000
   2543 C          16.0266    0.0000   63.8100 ca      1  CNT         0.000000
   2544 C          15.9796    1.2268   63.1010 ca      1  CNT         0.000000
   2545 C          15.8388    2.4464   63.8100 ca      1  CNT         0.000000
   2546 C          15.6050    3.6517   63.1010 ca      1  CNT         0.000000
   2547 C          15.2797    4.8355   63.8100 ca      1  CNT         0.000000
   2548 C          14.8647    5.9910   63.1010 ca      1  CNT         0.000000
   2549 C          14.3625    7.1113   63.8100 ca      1  CNT         0.000000
   2550 C          13.7760    8.1899   63.1010 ca      1  CNT         0.000000
   2551 C          13.1086    9.2204   63.8100 ca      1  CNT         0.000000
   2552 C          12.3643   10.1968   63.1010 ca      1  CNT         0.000000
   2553 C          11.5475   11.1134   63.8100 ca      1  CNT         0.000000
   2554 C          10.6629   11.9647   63.1010 ca      1  CNT         0.000000
   2555 C           9.7157   12.7458   63.8100 ca      1  CNT         0.000000
   2556 C           8.7115   13.4522   63.1010 ca      1  CNT         0.000000
   2557 C           7.6562   14.0795   63.8100 ca      1  CNT         0.000000
   2558 C           6.5560   14.6243   63.1010 ca      1  CNT         0.000000
   2559 C           5.4173   15.0833   63.8100 ca      1  CNT         0.000000
   2560 C           4.2467   15.4537   63.1010 ca      1  CNT         0.000000
   2561 C           3.0513   15.7334   63.8100 ca      1  CNT         0.000000
   2562 C           1.8380   15.9208   63.1010 ca      1  CNT         0.000000
   2563 C           0.6139   16.0148   63.8100 ca      1  CNT         0.000000
   2564 C          -0.6139   16.0148   63.1010 ca      1  CNT         0.000000
   2565 C          -1.8380   15.9208   63.8100 ca      1  CNT         0.000000
   2566 C          -3.0513   15.7334   63.1010 ca      1  CNT         0.000000
   2567 C          -4.2467   15.4537   63.8100 ca      1  CNT         0.000000
   2568 C          -5.4173   15.0833   63.1010 ca      1  CNT         0.000000
   2569 C          -6.5560   14.6243   63.8100 ca      1  CNT         0.000000
   2570 C          -7.6562   14.0795   63.1010 ca      1  CNT         0.000000
   2571 C          -8.7115   13.4522   63.8100 ca      1  CNT         0.000000
   2572 C          -9.7157   12.7458   63.1010 ca      1  CNT         0.000000
   2573 C         -10.6629   11.9647   63.8100 ca      1  CNT         0.000000
   2574 C         -11.5475   11.1134   63.1010 ca      1  CNT         0.000000
   2575 C         -12.3643   10.1968   63.8100 ca      1  CNT         0.000000
   2576 C         -13.1086    9.2204   63.1010 ca      1  CNT         0.000000
   2577 C         -13.7760    8.1899   63.8100 ca      1  CNT         0.000000
   2578 C         -14.3625    7.1113   63.1010 ca      1  CNT         0.000000
   2579 C         -14.8647    5.9910   63.8100 ca      1  CNT         0.000000
   2580 C         -15.2797    4.8355   63.1010 ca      1  CNT         0.000000
   2581 C         -15.6050    3.6517   63.8100 ca      1  CNT         0.000000
   2582 C         -15.8388    2.4464   63.1010 ca      1  CNT         0.000000
   2583 C         -15.9796    1.2268   63.8100 ca      1  CNT         0.000000
   2584 C         -16.0266    0.0000   63.1010 ca      1  CNT         0.000000
   2585 C         -15.9796   -1.2268   63.8100 ca      1  CNT         0.000000
   2586 C         -15.8388   -2.4464   63.1010 ca      1  CNT         0.000000
   2587 C         -15.6050   -3.6517   63.8100 ca      1  CNT         0.000000
   2588 C         -15.2797   -4.8355   63.1010 ca      1  CNT         0.000000
   2589 C         -14.8647   -5.9910   63.8100 ca      1  CNT         0.000000
   2590 C         -14.3625   -7.1113   63.1010 ca      1  CNT         0.000000
   2591 C         -13.7760   -8.1899   63.8100 ca      1  CNT         0.000000
   2592 C         -13.1086   -9.2204   63.1010 ca      1  CNT         0.000000
   2593 C         -12.3643  -10.1968   63.8100 ca      1  CNT         0.000000
   2594 C         -11.5475  -11.1134   63.1010 ca      1  CNT         0.000000
   2595 C         -10.6629  -11.9647   63.8100 ca      1  CNT         0.000000
   2596 C          -9.7157  -12.7458   63.1010 ca      1  CNT         0.000000
   2597 C          -8.7115  -13.4522   63.8100 ca      1  CNT         0.000000
   2598 C          -7.6562  -14.0795   63.1010 ca      1  CNT         0.000000
   2599 C          -6.5560  -14.6243   63.8100 ca      1  CNT         0.000000
   2600 C          -5.4173  -15.0833   63.1010 ca      1  CNT         0.000000
   2601 C          -4.2467  -15.4537   63.8100 ca      1  CNT         0.000000
   2602 C          -3.0513  -15.7334   63.1010 ca      1  CNT         0.000000
   2603 C          -1.8380  -15.9208   63.8100 ca      1  CNT         0.000000
   2604 C          -0.6139  -16.0148   63.1010 ca      1  CNT         0.000000
   2605 C           0.6139  -16.0148   63.8100 ca      1  CNT         0.000000
   2606 C           1.8380  -15.9208   63.1010 ca      1  CNT         0.000000
   2607 C           3.0513  -15.7334   63.8100 ca      1  CNT         0.000000
   2608 C           4.2467  -15.4537   63.1010 ca      1  CNT         0.000000
   2609 C           5.4173  -15.0833   63.8100 ca      1  CNT         0.000000
   2610 C           6.5560  -14.6243   63.1010 ca      1  CNT         0.000000
   2611 C           7.6562  -14.0795   63.8100 ca      1  CNT         0.000000
   2612 C           8.7115  -13.4522   63.1010 ca      1  CNT         0.000000
   2613 C           9.7157  -12.7458   63.8100 ca      1  CNT         0.000000
   2614 C          10.6629  -11.9647   63.1010 ca      1  CNT         0.000000
   2615 C          11.5475  -11.1134   63.8100 ca      1  CNT         0.000000
   2616 C          12.3643  -10.1968   63.1010 ca      1  CNT         0.000000
   2617 C          13.1086   -9.2204   63.8100 ca      1  CNT         0.000000
   2618 C          13.7760   -8.1899   63.1010 ca      1  CNT         0.000000
   2619 C          14.3625   -7.1113   63.8100 ca      1  CNT         0.000000
   2620 C          14.8647   -5.9910   63.1010 ca      1  CNT         0.000000
   2621 C          15.2797   -4.8355   63.8100 ca      1  CNT         0.000000
   2622 C          15.6050   -3.6517   63.1010 ca      1  CNT         0.000000
   2623 C          15.8388   -2.4464   63.8100 ca      1  CNT         0.000000
   2624 C          15.9796   -1.2268   63.1010 ca      1  CNT         0.000000
   2625 C          15.9796    1.2268   70.1910 ca      1  CNT         0.000000
   2626 C          15.8388    2.4464   69.4820 ca      1  CNT         0.000000
   2627 C          15.6050    3.6517   70.1910 ca      1  CNT         0.000000
   2628 C          15.2797    4.8355   69.4820 ca      1  CNT         0.000000
   2629 C          14.8647    5.9910   70.1910 ca      1  CNT         0.000000
   2630 C          14.3625    7.1113   69.4820 ca      1  CNT         0.000000
   2631 C          13.7760    8.1899   70.1910 ca      1  CNT         0.000000
   2632 C          13.1086    9.2204   69.4820 ca      1  CNT         0.000000
   2633 C          12.3643   10.1968   70.1910 ca      1  CNT         0.000000
   2634 C          11.5475   11.1134   69.4820 ca      1  CNT         0.000000
   2635 C          10.6629   11.9647   70.1910 ca      1  CNT         0.000000
   2636 C           9.7157   12.7458   69.4820 ca      1  CNT         0.000000
   2637 C           8.7115   13.4522   70.1910 ca      1  CNT         0.000000
   2638 C           7.6562   14.0795   69.4820 ca      1  CNT         0.000000
   2639 C           6.5560   14.6243   70.1910 ca      1  CNT         0.000000
   2640 C           5.4173   15.0833   69.4820 ca      1  CNT         0.000000
   2641 C           4.2467   15.4537   70.1910 ca      1  CNT         0.000000
   2642 C           3.0513   15.7334   69.4820 ca      1  CNT         0.000000
   2643 C           1.8380   15.9208   70.1910 ca      1  CNT         0.000000
   2644 C           0.6139   16.0148   69.4820 ca      1  CNT         0.000000
   2645 C          -0.6139   16.0148   70.1910 ca      1  CNT         0.000000
   2646 C          -1.8380   15.9208   69.4820 ca      1  CNT         0.000000
   2647 C          -3.0513   15.7334   70.1910 ca      1  CNT         0.000000
   2648 C          -4.2467   15.4537   69.4820 ca      1  CNT         0.000000
   2649 C          -5.4173   15.0833   70.1910 ca      1  CNT         0.000000
   2650 C          -6.5560   14.6243   69.4820 ca      1  CNT         0.000000
   2651 C          -7.6562   14.0795   70.1910 ca      1  CNT         0.000000
   2652 C          -8.7115   13.4522   69.4820 ca      1  CNT         0.000000
   2653 C          -9.7157   12.7458   70.1910 ca      1  CNT         0.000000
   2654 C         -10.6629   11.9647   69.4820 ca      1  CNT         0.000000
   2655 C         -11.5475   11.1134   70.1910 ca      1  CNT         0.000000
   2656 C         -12.3643   10.1968   69.4820 ca      1  CNT         0.000000
   2657 C         -13.1086    9.2204   70.1910 ca      1  CNT         0.000000
   2658 C         -13.7760    8.1899   69.4820 ca      1  CNT         0.000000
   2659 C         -14.3625    7.1113   70.1910 ca      1  CNT         0.000000
   2660 C         -14.8647    5.9910   69.4820 ca      1  CNT         0.000000
   2661 C         -15.2797    4.8355   70.1910 ca      1  CNT         0.000000
   2662 C         -15.6050    3.6517   69.4820 ca      1  CNT         0.000000
   2663 C         -15.8388    2.4464   70.1910 ca      1  CNT         0.000000
   2664 C         -15.9796    1.2268   69.4820 ca      1  CNT         0.000000
   2665 C         -16.0266   -0.0000   70.1910 ca      1  CNT         0.000000
   2666 C         -15.9796   -1.2268   69.4820 ca      1  CNT         0.000000
   2667 C         -15.8388   -2.4464   70.1910 ca      1  CNT         0.000000
   2668 C         -15.6050   -3.6517   69.4820 ca      1  CNT         0.000000
   2669 C         -15.2797   -4.8355   70.1910 ca      1  CNT         0.000000
   2670 C         -14.8647   -5.9910   69.4820 ca      1  CNT         0.000000
   2671 C         -14.3625   -7.1113   70.1910 ca      1  CNT         0.000000
   2672 C         -13.7760   -8.1899   69.4820 ca      1  CNT         0.000000
   2673 C         -13.1086   -9.2204   70.1910 ca      1  CNT         0.000000
   2674 C         -12.3643  -10.1968   69.4820 ca      1  CNT         0.000000
   2675 C         -11.5475  -11.1134   70.1910 ca      1  CNT         0.000000
   2676 C         -10.6629  -11.9647   69.4820 ca      1  CNT         0.000000
   2677 C          -9.7157  -12.7458   70.1910 ca      1  CNT         0.000000
   2678 C          -8.7115  -13.4522   69.4820 ca      1  CNT         0.000000
   2679 C          -7.6562  -14.0795   70.1910 ca      1  CNT         0.000000
   2680 C          -6.5560  -14.6243   69.4820 ca      1  CNT         0.000000
   2681 C          -5.4173  -15.0833   70.1910 ca      1  CNT         0.000000
   2682 C          -4.2467  -15.4537   69.4820 ca      1  CNT         0.000000
   2683 C          -3.0513  -15.7334   70.1910 ca      1  CNT         0.000000
   2684 C          -1.8380  -15.9208   69.4820 ca      1  CNT         0.000000
   2685 C          -0.6139  -16.0148   70.1910 ca      1  CNT         0.000000
   2686 C           0.6139  -16.0148   69.4820 ca      1  CNT         0.000000
   2687 C           1.8380  -15.9208   70.1910 ca      1  CNT         0.000000
   2688 C           3.0513  -15.7334   69.4820 ca      1  CNT         0.000000
   2689 C           4.2467  -15.4537   70.1910 ca      1  CNT         0.000000
   2690 C           5.4173  -15.0833   69.4820 ca      1  CNT         0.000000
   2691 C           6.5560  -14.6243   70.1910 ca      1  CNT         0.000000
   2692 C           7.6562  -14.0795   69.4820 ca      1  CNT         0.000000
   2693 C           8.7115  -13.4522   70.1910 ca      1  CNT         0.000000
   2694 C           9.7157  -12.7458   69.4820 ca      1  CNT         0.000000
   2695 C          10.6629  -11.9647   70.1910 ca      1  CNT         0.000000
   2696 C          11.5475  -11.1134   69.4820 ca      1  CNT         0.000000
   2697 C          12.3643  -10.1968   70.1910 ca      1  CNT         0.000000
   2698 C          13.1086   -9.2204   69.4820 ca      1  CNT         0.000000
   2699 C          13.7760   -8.1899   70.1910 ca      1  CNT         0.000000
   2700 C          14.3625   -7.1113   69.4820 ca      1  CNT         0.000000
   2701 C          14.8647   -5.9910   70.1910 ca      1  CNT         0.000000
   2702 C          15.2797   -4.8355   69.4820 ca      1  CNT         0.000000
   2703 C          15.6050   -3.6517   70.1910 ca      1  CNT         0.000000
   2704 C          15.8388   -2.4464   69.4820 ca      1  CNT         0.000000
   2705 C          15.9796   -1.2268   70.1910 ca      1  CNT         0.000000
   2706 C          16.0266   -0.0000   69.4820 ca      1  CNT         0.000000
   2707 C          16.0266    0.0000   68.0640 ca      1  CNT         0.000000
   2708 C          15.9796    1.2268   67.3550 ca      1  CNT         0.000000
   2709 C          15.8388    2.4464   68.0640 ca      1  CNT         0.000000
   2710 C          15.6050    3.6517   67.3550 ca      1  CNT         0.000000
   2711 C          15.2797    4.8355   68.0640 ca      1  CNT         0.000000
   2712 C          14.8647    5.9910   67.3550 ca      1  CNT         0.000000
   2713 C          14.3625    7.1113   68.0640 ca      1  CNT         0.000000
   2714 C          13.7760    8.1899   67.3550 ca      1  CNT         0.000000
   2715 C          13.1086    9.2204   68.0640 ca      1  CNT         0.000000
   2716 C          12.3643   10.1968   67.3550 ca      1  CNT         0.000000
   2717 C          11.5475   11.1134   68.0640 ca      1  CNT         0.000000
   2718 C          10.6629   11.9647   67.3550 ca      1  CNT         0.000000
   2719 C           9.7157   12.7458   68.0640 ca      1  CNT         0.000000
   2720 C           8.7115   13.4522   67.3550 ca      1  CNT         0.000000
   2721 C           7.6562   14.0795   68.0640 ca      1  CNT         0.000000
   2722 C           6.5560   14.6243   67.3550 ca      1  CNT         0.000000
   2723 C           5.4173   15.0833   68.0640 ca      1  CNT         0.000000
   2724 C           4.2467   15.4537   67.3550 ca      1  CNT         0.000000
   2725 C           3.0513   15.7334   68.0640 ca      1  CNT         0.000000
   2726 C           1.8380   15.9208   67.3550 ca      1  CNT         0.000000
   2727 C           0.6139   16.0148   68.0640 ca      1  CNT         0.000000
   2728 C          -0.6139   16.0148   67.3550 ca      1  CNT         0.000000
   2729 C          -1.8380   15.9208   68.0640 ca      1  CNT         0.000000
   2730 C          -3.0513   15.7334   67.3550 ca      1  CNT         0.000000
   2731 C          -4.2467   15.4537   68.0640 ca      1  CNT         0.000000
   2732 C          -5.4173   15.0833   67.3550 ca      1  CNT         0.000000
   2733 C          -6.5560   14.6243   68.0640 ca      1  CNT         0.000000
   2734 C          -7.6562   14.0795   67.3550 ca      1  CNT         0.000000
   2735 C          -8.7115   13.4522   68.0640 ca      1  CNT         0.000000
   2736 C          -9.7157   12.7458   67.3550 ca      1  CNT         0.000000
   2737 C         -10.6629   11.9647   68.0640 ca      1  CNT         0.000000
   2738 C         -11.5475   11.1134   67.3550 ca      1  CNT         0.000000
   2739 C         -12.3643   10.1968   68.0640 ca      1  CNT         0.000000
   2740 C         -13.1086    9.2204   67.3550 ca      1  CNT         0.000000
   2741 C         -13.7760    8.1899   68.0640 ca      1  CNT         0.000000
   2742 C         -14.3625    7.1113   67.3550 ca      1  CNT         0.000000
   2743 C         -14.8647    5.9910   68.0640 ca      1  CNT         0.000000
   2744 C         -15.2797    4.8355   67.3550 ca      1  CNT         0.000000
   2745 C         -15.6050    3.6517   68.0640 ca      1  CNT         0.000000
   2746 C         -15.8388    2.4464   67.3550 ca      1  CNT         0.000000
   2747 C         -15.9796    1.2268   68.0640 ca      1  CNT         0.000000
   2748 C         -16.0266    0.0000   67.3550 ca      1  CNT         0.000000
   2749 C         -15.9796   -1.2268   68.0640 ca      1  CNT         0.000000
   2750 C         -15.8388   -2.4464   67.3550 ca      1  CNT         0.000000
   2751 C         -15.6050   -3.6517   68.0640 ca      1  CNT         0.000000
   2752 C         -15.2797   -4.8355   67.3550 ca      1  CNT         0.000000
   2753 C         -14.8647   -5.9910   68.0640 ca      1  CNT         0.000000
   2754 C         -14.3625   -7.1113   67.3550 ca      1  CNT         0.000000
   2755 C         -13.7760   -8.1899   68.0640 ca      1  CNT         0.000000
   2756 C         -13.1086   -9.2204   67.3550 ca      1  CNT         0.000000
   2757 C         -12.3643  -10.1968   68.0640 ca      1  CNT         0.000000
   2758 C         -11.5475  -11.1134   67.3550 ca      1  CNT         0.000000
   2759 C         -10.6629  -11.9647   68.0640 ca      1  CNT         0.000000
   2760 C          -9.7157  -12.7458   67.3550 ca      1  CNT         0.000000
   2761 C          -8.7115  -13.4522   68.0640 ca      1  CNT         0.000000
   2762 C          -7.6562  -14.0795   67.3550 ca      1  CNT         0.000000
   2763 C          -6.5560  -14.6243   68.0640 ca      1  CNT         0.000000
   2764 C          -5.4173  -15.0833   67.3550 ca      1  CNT         0.000000
   2765 C          -4.2467  -15.4537   68.0640 ca      1  CNT         0.000000
   2766 C          -3.0513  -15.7334   67.3550 ca      1  CNT         0.000000
   2767 C          -1.8380  -15.9208   68.0640 ca      1  CNT         0.000000
   2768 C          -0.6139  -16.0148   67.3550 ca      1  CNT         0.000000
   2769 C           0.6139  -16.0148   68.0640 ca      1  CNT         0.000000
   2770 C           1.8380  -15.9208   67.3550 ca      1  CNT         0.000000
   2771 C           3.0513  -15.7334   68.0640 ca      1  CNT         0.000000
   2772 C           4.2467  -15.4537   67.3550 ca      1  CNT         0.000000
   2773 C           5.4173  -15.0833   68.0640 ca      1  CNT         0.000000
   2774 C           6.5560  -14.6243   67.3550 ca      1  CNT         0.000000
   2775 C           7.6562  -14.0795   68.0640 ca      1  CNT         0.000000
   2776 C           8.7115  -13.4522   67.3550 ca      1  CNT         0.000000
   2777 C           9.7157  -12.7458   68.0640 ca      1  CNT         0.000000
   2778 C          10.6629  -11.9647   67.3550 ca      1  CNT         0.000000
   2779 C          11.5475  -11.1134   68.0640 ca      1  CNT         0.000000
   2780 C          12.3643  -10.1968   67.3550 ca      1  CNT         0.000000
   2781 C          13.1086   -9.2204   68.0640 ca      1  CNT         0.000000
   2782 C          13.7760   -8.1899   67.3550 ca      1  CNT         0.000000
   2783 C          14.3625   -7.1113   68.0640 ca      1  CNT         0.000000
   2784 C          14.8647   -5.9910   67.3550 ca      1  CNT         0.000000
   2785 C          15.2797   -4.8355   68.0640 ca      1  CNT         0.000000
   2786 C          15.6050   -3.6517   67.3550 ca      1  CNT         0.000000
   2787 C          15.8388   -2.4464   68.0640 ca      1  CNT         0.000000
   2788 C          15.9796   -1.2268   67.3550 ca      1  CNT         0.000000
   2789 C          15.9796    1.2268   74.4450 ca      1  CNT         0.000000
   2790 C          15.8388    2.4464   73.7360 ca      1  CNT         0.000000
   2791 C          15.6050    3.6517   74.4450 ca      1  CNT         0.000000
   2792 C          15.2797    4.8355   73.7360 ca      1  CNT         0.000000
   2793 C          14.8647    5.9910   74.4450 ca      1  CNT         0.000000
   2794 C          14.3625    7.1113   73.7360 ca      1  CNT         0.000000
   2795 C          13.7760    8.1899   74.4450 ca      1  CNT         0.000000
   2796 C          13.1086    9.2204   73.7360 ca      1  CNT         0.000000
   2797 C          12.3643   10.1968   74.4450 ca      1  CNT         0.000000
   2798 C          11.5475   11.1134   73.7360 ca      1  CNT         0.000000
   2799 C          10.6629   11.9647   74.4450 ca      1  CNT         0.000000
   2800 C           9.7157   12.7458   73.7360 ca      1  CNT         0.000000
   2801 C           8.7115   13.4522   74.4450 ca      1  CNT         0.000000
   2802 C           7.6562   14.0795   73.7360 ca      1  CNT         0.000000
   2803 C           6.5560   14.6243   74.4450 ca      1  CNT         0.000000
   2804 C           5.4173   15.0833   73.7360 ca      1  CNT         0.000000
   2805 C           4.2467   15.4537   74.4450 ca      1  CNT         0.000000
   2806 C           3.0513   15.7334   73.7360 ca      1  CNT         0.000000
   2807 C           1.8380   15.9208   74.4450 ca      1  CNT         0.000000
   2808 C           0.6139   16.0148   73.7360 ca      1  CNT         0.000000
   2809 C          -0.6139   16.0148   74.4450 ca      1  CNT         0.000000
   2810 C          -1.8380   15.9208   73.7360 ca      1  CNT         0.000000
   2811 C          -3.0513   15.7334   74.4450 ca      1  CNT         0.000000
   2812 C          -4.2467   15.4537   73.7360 ca      1  CNT         0.000000
   2813 C          -5.4173   15.0833   74.4450 ca      1  CNT         0.000000
   2814 C          -6.5560   14.6243   73.7360 ca      1  CNT         0.000000
   2815 C          -7.6562   14.0795   74.4450 ca      1  CNT         0.000000
   2816 C          -8.7115   13.4522   73.7360 ca      1  CNT         0.000000
   2817 C          -9.7157   12.7458   74.4450 ca      1  CNT         0.000000
   2818 C         -10.6629   11.9647   73.7360 ca      1  CNT         0.000000
   2819 C         -11.5475   11.1134   74.4450 ca      1  CNT         0.000000
   2820 C         -12.3643   10.1968   73.7360 ca      1  CNT         0.000000
   2821 C         -13.1086    9.2204   74.4450 ca      1  CNT         0.000000
   2822 C         -13.7760    8.1899   73.7360 ca      1  CNT         0.000000
   2823 C         -14.3625    7.1113   74.4450 ca      1  CNT         0.000000
   2824 C         -14.8647    5.9910   73.7360 ca      1  CNT         0.000000
   2825 C         -15.2797    4.8355   74.4450 ca      1  CNT         0.000000
   2826 C         -15.6050    3.6517   73.7360 ca      1  CNT         0.000000
   2827 C         -15.8388    2.4464   74.4450 ca      1  CNT         0.000000
   2828 C         -15.9796    1.2268   73.7360 ca      1  CNT         0.000000
   2829 C         -16.0266   -0.0000   74.4450 ca      1  CNT         0.000000
   2830 C         -15.9796   -1.2268   73.7360 ca      1  CNT         0.000000
   2831 C         -15.8388   -2.4464   74.4450 ca      1  CNT         0.000000
   2832 C         -15.6050   -3.6517   73.7360 ca      1  CNT         0.000000
   2833 C         -15.2797   -4.8355   74.4450 ca      1  CNT         0.000000
   2834 C         -14.8647   -5.9910   73.7360 ca      1  CNT         0.000000
   2835 C         -14.3625   -7.1113   74.4450 ca      1  CNT         0.000000
   2836 C         -13.7760   -8.1899   73.7360 ca      1  CNT         0.000000
   2837 C         -13.1086   -9.2204   74.4450 ca      1  CNT         0.000000
   2838 C         -12.3643  -10.1968   73.7360 ca      1  CNT         0.000000
   2839 C         -11.5475  -11.1134   74.4450 ca      1  CNT         0.000000
   2840 C         -10.6629  -11.9647   73.7360 ca      1  CNT         0.000000
   2841 C          -9.7157  -12.7458   74.4450 ca      1  CNT         0.000000
   2842 C          -8.7115  -13.4522   73.7360 ca      1  CNT         0.000000
   2843 C          -7.6562  -14.0795   74.4450 ca      1  CNT         0.000000
   2844 C          -6.5560  -14.6243   73.7360 ca      1  CNT         0.000000
   2845 C          -5.4173  -15.0833   74.4450 ca      1  CNT         0.000000
   2846 C          -4.2467  -15.4537   73.7360 ca      1  CNT         0.000000
   2847 C          -3.0513  -15.7334   74.4450 ca      1  CNT         0.000000
   2848 C          -1.8380  -15.9208   73.7360 ca      1  CNT         0.000000
   2849 C          -0.6139  -16.0148   74.4450 ca      1  CNT         0.000000
   2850 C           0.6139  -16.0148   73.7360 ca      1  CNT         0.000000
   2851 C           1.8380  -15.9208   74.4450 ca      1  CNT         0.000000
   2852 C           3.0513  -15.7334   73.7360 ca      1  CNT         0.000000
   2853 C           4.2467  -15.4537   74.4450 ca      1  CNT         0.000000
   2854 C           5.4173  -15.0833   73.7360 ca      1  CNT         0.000000
   2855 C           6.5560  -14.6243   74.4450 ca      1  CNT         0.000000
   2856 C           7.6562  -14.0795   73.7360 ca      1  CNT         0.000000
   2857 C           8.7115  -13.4522   74.4450 ca      1  CNT         0.000000
   2858 C           9.7157  -12.7458   73.7360 ca      1  CNT         0.000000
   2859 C          10.6629  -11.9647   74.4450 ca      1  CNT         0.000000
   2860 C          11.5475  -11.1134   73.7360 ca      1  CNT         0.000000
   2861 C          12.3643  -10.1968   74.4450 ca      1  CNT         0.000000
   2862 C          13.1086   -9.2204   73.7360 ca      1  CNT         0.000000
   2863 C          13.7760   -8.1899   74.4450 ca      1  CNT         0.000000
   2864 C          14.3625   -7.1113   73.7360 ca      1  CNT         0.000000
   2865 C          14.8647   -5.9910   74.4450 ca      1  CNT         0.000000
   2866 C          15.2797   -4.8355   73.7360 ca      1  CNT         0.000000
   2867 C          15.6050   -3.6517   74.4450 ca      1  CNT         0.000000
   2868 C          15.8388   -2.4464   73.7360 ca      1  CNT         0.000000
   2869 C          15.9796   -1.2268   74.4450 ca      1  CNT         0.000000
   2870 C          16.0266   -0.0000   73.7360 ca      1  CNT         0.000000
   2871 C          16.0266    0.0000   72.3180 ca      1  CNT         0.000000
   2872 C          15.9796    1.2268   71.6090 ca      1  CNT         0.000000
   2873 C          15.8388    2.4464   72.3180 ca      1  CNT         0.000000
   2874 C          15.6050    3.6517   71.6090 ca      1  CNT         0.000000
   2875 C          15.2797    4.8355   72.3180 ca      1  CNT         0.000000
   2876 C          14.8647    5.9910   71.6090 ca      1  CNT         0.000000
   2877 C          14.3625    7.1113   72.3180 ca      1  CNT         0.000000
   2878 C          13.7760    8.1899   71.6090 ca      1  CNT         0.000000
   2879 C          13.1086    9.2204   72.3180 ca      1  CNT         0.000000
   2880 C          12.3643   10.1968   71.6090 ca      1  CNT         0.000000
   2881 C          11.5475   11.1134   72.3180 ca      1  CNT         0.000000
   2882 C          10.6629   11.9647   71.6090 ca      1  CNT         0.000000
   2883 C           9.7157   12.7458   72.3180 ca      1  CNT         0.000000
   2884 C           8.7115   13.4522   71.6090 ca      1  CNT         0.000000
   2885 C           7.6562   14.0795   72.3180 ca      1  CNT         0.000000
   2886 C           6.5560   14.6243   71.6090 ca      1  CNT         0.000000
   2887 C           5.4173   15.0833   72.3180 ca      1  CNT         0.000000
   2888 C           4.2467   15.4537   71.6090 ca      1  CNT         0.000000
   2889 C           3.0513   15.7334   72.3180 ca      1  CNT         0.000000
   2890 C           1.8380   15.9208   71.6090 ca      1  CNT         0.000000
   2891 C           0.6139   16.0148   72.3180 ca      1  CNT         0.000000
   2892 C          -0.6139   16.0148   71.6090 ca      1  CNT         0.000000
   2893 C          -1.8380   15.9208   72.3180 ca      1  CNT         0.000000
   2894 C          -3.0513   15.7334   71.6090 ca      1  CNT         0.000000
   2895 C          -4.2467   15.4537   72.3180 ca      1  CNT         0.000000
   2896 C          -5.4173   15.0833   71.6090 ca      1  CNT         0.000000
   2897 C          -6.5560   14.6243   72.3180 ca      1  CNT         0.000000
   2898 C          -7.6562   14.0795   71.6090 ca      1  CNT         0.000000
   2899 C          -8.7115   13.4522   72.3180 ca      1  CNT         0.000000
   2900 C          -9.7157   12.7458   71.6090 ca      1  CNT         0.000000
   2901 C         -10.6629   11.9647   72.3180 ca      1  CNT         0.000000
   2902 C         -11.5475   11.1134   71.6090 ca      1  CNT         0.000000
   2903 C         -12.3643   10.1968   72.3180 ca      1  CNT         0.000000
   2904 C         -13.1086    9.2204   71.6090 ca      1  CNT         0.000000
   2905 C         -13.7760    8.1899   72.3180 ca      1  CNT         0.000000
   2906 C         -14.3625    7.1113   71.6090 ca      1  CNT         0.000000
   2907 C         -14.8647    5.9910   72.3180 ca      1  CNT         0.000000
   2908 C         -15.2797    4.8355   71.6090 ca      1  CNT         0.000000
   2909 C         -15.6050    3.6517   72.3180 ca      1  CNT         0.000000
   2910 C         -15.8388    2.4464   71.6090 ca      1  CNT         0.000000
   2911 C         -15.9796    1.2268   72.3180 ca      1  CNT         0.000000
   2912 C         -16.0266    0.0000   71.6090 ca      1  CNT         0.000000
   2913 C         -15.9796   -1.2268   72.3180 ca      1  CNT         0.000000
   2914 C         -15.8388   -2.4464   71.6090 ca      1  CNT         0.000000
   2915 C         -15.6050   -3.6517   72.3180 ca      1  CNT         0.000000
   2916 C         -15.2797   -4.8355   71.6090 ca      1  CNT         0.000000
   2917 C         -14.8647   -5.9910   72.3180 ca      1  CNT         0.000000
   2918 C         -14.3625   -7.1113   71.6090 ca      1  CNT         0.000000
   2919 C         -13.7760   -8.1899   72.3180 ca      1  CNT         0.000000
   2920 C         -13.1086   -9.2204   71.6090 ca      1  CNT         0.000000
   2921 C         -12.3643  -10.1968   72.3180 ca      1  CNT         0.000000
   2922 C         -11.5475  -11.1134   71.6090 ca      1  CNT         0.000000
   2923 C         -10.6629  -11.9647   72.3180 ca      1  CNT         0.000000
   2924 C          -9.7157  -12.7458   71.6090 ca      1  CNT         0.000000
   2925 C          -8.7115  -13.4522   72.3180 ca      1  CNT         0.000000
   2926 C          -7.6562  -14.0795   71.6090 ca      1  CNT         0.000000
   2927 C          -6.5560  -14.6243   72.3180 ca      1  CNT         0.000000
   2928 C          -5.4173  -15.0833   71.6090 ca      1  CNT         0.000000
   2929 C          -4.2467  -15.4537   72.3180 ca      1  CNT         0.000000
   2930 C          -3.0513  -15.7334   71.6090 ca      1  CNT         0.000000
   2931 C          -1.8380  -15.9208   72.3180 ca      1  CNT         0.000000
   2932 C          -0.6139  -16.0148   71.6090 ca      1  CNT         0.000000
   2933 C           0.6139  -16.0148   72.3180 ca      1  CNT         0.000000
   2934 C           1.8380  -15.9208   71.6090 ca      1  CNT         0.000000
   2935 C           3.0513  -15.7334   72.3180 ca      1  CNT         0.000000
   2936 C           4.2467  -15.4537   71.6090 ca      1  CNT         0.000000
   2937 C           5.4173  -15.0833   72.3180 ca      1  CNT         0.000000
   2938 C           6.5560  -14.6243   71.6090 ca      1  CNT         0.000000
   2939 C           7.6562  -14.0795   72.3180 ca      1  CNT         0.000000
   2940 C           8.7115  -13.4522   71.6090 ca      1  CNT         0.000000
   2941 C           9.7157  -12.7458   72.3180 ca      1  CNT         0.000000
   2942 C          10.6629  -11.9647   71.6090 ca      1  CNT         0.000000
   2943 C          11.5475  -11.1134   72.3180 ca      1  CNT         0.000000
   2944 C          12.3643  -10.1968   71.6090 ca      1  CNT         0.000000
   2945 C          13.1086   -9.2204   72.3180 ca      1  CNT         0.000000
   2946 C          13.7760   -8.1899   71.6090 ca      1  CNT         0.000000
   2947 C          14.3625   -7.1113   72.3180 ca      1  CNT         0.000000
   2948 C          14.8647   -5.9910   71.6090 ca      1  CNT         0.000000
   2949 C          15.2797   -4.8355   72.3180 ca      1  CNT         0.000000
   2950 C          15.6050   -3.6517   71.6090 ca      1  CNT         0.000000
   2951 C          15.8388   -2.4464   72.3180 ca      1  CNT         0.000000
   2952 C          15.9796   -1.2268   71.6090 ca      1  CNT         0.000000
   2953 C          15.9796    1.2268   78.6990 ca      1  CNT         0.000000
   2954 C          15.8388    2.4464   77.9900 ca      1  CNT         0.000000
   2955 C          15.6050    3.6517   78.6990 ca      1  CNT         0.000000
   2956 C          15.2797    4.8355   77.9900 ca      1  CNT         0.000000
   2957 C          14.8647    5.9910   78.6990 ca      1  CNT         0.000000
   2958 C          14.3625    7.1113   77.9900 ca      1  CNT         0.000000
   2959 C          13.7760    8.1899   78.6990 ca      1  CNT         0.000000
   2960 C          13.1086    9.2204   77.9900 ca      1  CNT         0.000000
   2961 C          12.3643   10.1968   78.6990 ca      1  CNT         0.000000
   2962 C          11.5475   11.1134   77.9900 ca      1  CNT         0.000000
   2963 C          10.6629   11.9647   78.6990 ca      1  CNT         0.000000
   2964 C           9.7157   12.7458   77.9900 ca      1  CNT         0.000000
   2965 C           8.7115   13.4522   78.6990 ca      1  CNT         0.000000
   2966 C           7.6562   14.0795   77.9900 ca      1  CNT         0.000000
   2967 C           6.5560   14.6243   78.6990 ca      1  CNT         0.000000
   2968 C           5.4173   15.0833   77.9900 ca      1  CNT         0.000000
   2969 C           4.2467   15.4537   78.6990 ca      1  CNT         0.000000
   2970 C           3.0513   15.7334   77.9900 ca      1  CNT         0.000000
   2971 C           1.8380   15.9208   78.6990 ca      1  CNT         0.000000
   2972 C           0.6139   16.0148   77.9900 ca      1  CNT         0.000000
   2973 C          -0.6139   16.0148   78.6990 ca      1  CNT         0.000000
   2974 C          -1.8380   15.9208   77.9900 ca      1  CNT         0.000000
   2975 C          -3.0513   15.7334   78.6990 ca      1  CNT         0.000000
   2976 C          -4.2467   15.4537   77.9900 ca      1  CNT         0.000000
   2977 C          -5.4173   15.0833   78.6990 ca      1  CNT         0.000000
   2978 C          -6.5560   14.6243   77.9900 ca      1  CNT         0.000000
   2979 C          -7.6562   14.0795   78.6990 ca      1  CNT         0.000000
   2980 C          -8.7115   13.4522   77.9900 ca      1  CNT         0.000000
   2981 C          -9.7157   12.7458   78.6990 ca      1  CNT         0.000000
   2982 C         -10.6629   11.9647   77.9900 ca      1  CNT         0.000000
   2983 C         -11.5475   11.1134   78.6990 ca      1  CNT         0.000000
   2984 C         -12.3643   10.1968   77.9900 ca      1  CNT         0.000000
   2985 C         -13.1086    9.2204   78.6990 ca      1  CNT         0.000000
   2986 C         -13.7760    8.1899   77.9900 ca      1  CNT         0.000000
   2987 C         -14.3625    7.1113   78.6990 ca      1  CNT         0.000000
   2988 C         -14.8647    5.9910   77.9900 ca      1  CNT         0.000000
   2989 C         -15.2797    4.8355   78.6990 ca      1  CNT         0.000000
   2990 C         -15.6050    3.6517   77.9900 ca      1  CNT         0.000000
   2991 C         -15.8388    2.4464   78.6990 ca      1  CNT         0.000000
   2992 C         -15.9796    1.2268   77.9900 ca      1  CNT         0.000000
   2993 C         -16.0266   -0.0000   78.6990 ca      1  CNT         0.000000
   2994 C         -15.9796   -1.2268   77.9900 ca      1  CNT         0.000000
   2995 C         -15.8388   -2.4464   78.6990 ca      1  CNT         0.000000
   2996 C         -15.6050   -3.6517   77.9900 ca      1  CNT         0.000000
   2997 C         -15.2797   -4.8355   78.6990 ca      1  CNT         0.000000
   2998 C         -14.8647   -5.9910   77.9900 ca      1  CNT         0.000000
   2999 C         -14.3625   -7.1113   78.6990 ca      1  CNT         0.000000
   3000 C         -13.7760   -8.1899   77.9900 ca      1  CNT         0.000000
   3001 C         -13.1086   -9.2204   78.6990 ca      1  CNT         0.000000
   3002 C         -12.3643  -10.1968   77.9900 ca      1  CNT         0.000000
   3003 C         -11.5475  -11.1134   78.6990 ca      1  CNT         0.000000
   3004 C         -10.6629  -11.9647   77.9900 ca      1  CNT         0.000000
   3005 C          -9.7157  -12.7458   78.6990 ca      1  CNT         0.000000
   3006 C          -8.7115  -13.4522   77.9900 ca      1  CNT         0.000000
   3007 C          -7.6562  -14.0795   78.6990 ca      1  CNT         0.000000
   3008 C          -6.5560  -14.6243   77.9900 ca      1  CNT         0.000000
   3009 C          -5.4173  -15.0833   78.6990 ca      1  CNT         0.000000
   3010 C          -4.2467  -15.4537   77.9900 ca      1  CNT         0.000000
   3011 C          -3.0513  -15.7334   78.6990 ca      1  CNT         0.000000
   3012 C          -1.8380  -15.9208   77.9900 ca      1  CNT         0.000000
   3013 C          -0.6139  -16.0148   78.6990 ca      1  CNT         0.000000
   3014 C           0.6139  -16.0148   77.9900 ca      1  CNT         0.000000
   3015 C           1.8380  -15.9208   78.6990 ca      1  CNT         0.000000
   3016 C           3.0513  -15.7334   77.9900 ca      1  CNT         0.000000
   3017 C           4.2467  -15.4537   78.6990 ca      1  CNT         0.000000
   3018 C           5.4173  -15.0833   77.9900 ca      1  CNT         0.000000
   3019 C           6.5560  -14.6243   78.6990 ca      1  CNT         0.000000
   3020 C           7.6562  -14.0795   77.9900 ca      1  CNT         0.000000
   3021 C           8.7115  -13.4522   78.6990 ca      1  CNT         0.000000
   3022 C           9.7157  -12.7458   77.9900 ca      1  CNT         0.000000
   3023 C          10.6629  -11.9647   78.6990 ca      1  CNT         0.000000
   3024 C          11.5475  -11.1134   77.9900 ca      1  CNT         0.000000
   3025 C          12.3643  -10.1968   78.6990 ca      1  CNT         0.000000
   3026 C          13.1086   -9.2204   77.9900 ca      1  CNT         0.000000
   3027 C          13.7760   -8.1899   78.6990 ca      1  CNT         0.000000
   3028 C          14.3625   -7.1113   77.9900 ca      1  CNT         0.000000
   3029 C          14.8647   -5.9910   78.6990 ca      1  CNT         0.000000
   3030 C          15.2797   -4.8355   77.9900 ca      1  CNT         0.000000
   3031 C          15.6050   -3.6517   78.6990 ca      1  CNT         0.000000
   3032 C          15.8388   -2.4464   77.9900 ca      1  CNT         0.000000
   3033 C          15.9796   -1.2268   78.6990 ca      1  CNT         0.000000
   3034 C          16.0266   -0.0000   77.9900 ca      1  CNT         0.000000
   3035 C          16.0266    0.0000   76.5720 ca      1  CNT         0.000000
   3036 C          15.9796    1.2268   75.8630 ca      1  CNT         0.000000
   3037 C          15.8388    2.4464   76.5720 ca      1  CNT         0.000000
   3038 C          15.6050    3.6517   75.8630 ca      1  CNT         0.000000
   3039 C          15.2797    4.8355   76.5720 ca      1  CNT         0.000000
   3040 C          14.8647    5.9910   75.8630 ca      1  CNT         0.000000
   3041 C          14.3625    7.1113   76.5720 ca      1  CNT         0.000000
   3042 C          13.7760    8.1899   75.8630 ca      1  CNT         0.000000
   3043 C          13.1086    9.2204   76.5720 ca      1  CNT         0.000000
   3044 C          12.3643   10.1968   75.8630 ca      1  CNT         0.000000
   3045 C          11.5475   11.1134   76.5720 ca      1  CNT         0.000000
   3046 C          10.6629   11.9647   75.8630 ca      1  CNT         0.000000
   3047 C           9.7157   12.7458   76.5720 ca      1  CNT         0.000000
   3048 C           8.7115   13.4522   75.8630 ca      1  CNT         0.000000
   3049 C           7.6562   14.0795   76.5720 ca      1  CNT         0.000000
   3050 C           6.5560   14.6243   75.8630 ca      1  CNT         0.000000
   3051 C           5.4173   15.0833   76.5720 ca      1  CNT         0.000000
   3052 C           4.2467   15.4537   75.8630 ca      1  CNT         0.000000
   3053 C           3.0513   15.7334   76.5720 ca      1  CNT         0.000000
   3054 C           1.8380   15.9208   75.8630 ca      1  CNT         0.000000
   3055 C           0.6139   16.0148   76.5720 ca      1  CNT         0.000000
   3056 C          -0.6139   16.0148   75.8630 ca      1  CNT         0.000000
   3057 C          -1.8380   15.9208   76.5720 ca      1  CNT         0.000000
   3058 C          -3.0513   15.7334   75.8630 ca      1  CNT         0.000000
   3059 C          -4.2467   15.4537   76.5720 ca      1  CNT         0.000000
   3060 C          -5.4173   15.0833   75.8630 ca      1  CNT         0.000000
   3061 C          -6.5560   14.6243   76.5720 ca      1  CNT         0.000000
   3062 C          -7.6562   14.0795   75.8630 ca      1  CNT         0.000000
   3063 C          -8.7115   13.4522   76.5720 ca      1  CNT         0.000000
   3064 C          -9.7157   12.7458   75.8630 ca      1  CNT         0.000000
   3065 C         -10.6629   11.9647   76.5720 ca      1  CNT         0.000000
   3066 C         -11.5475   11.1134   75.8630 ca      1  CNT         0.000000
   3067 C         -12.3643   10.1968   76.5720 ca      1  CNT         0.000000
   3068 C         -13.1086    9.2204   75.8630 ca      1  CNT         0.000000
   3069 C         -13.7760    8.1899   76.5720 ca      1  CNT         0.000000
   3070 C         -14.3625    7.1113   75.8630 ca      1  CNT         0.000000
   3071 C         -14.8647    5.9910   76.5720 ca      1  CNT         0.000000
   3072 C         -15.2797    4.8355   75.8630 ca      1  CNT         0.000000
   3073 C         -15.6050    3.6517   76.5720 ca      1  CNT         0.000000
   3074 C         -15.8388    2.4464   75.8630 ca      1  CNT         0.000000
   3075 C         -15.9796    1.2268   76.5720 ca      1  CNT         0.000000
   3076 C         -16.0266    0.0000   75.8630 ca      1  CNT         0.000000
   3077 C         -15.9796   -1.2268   76.5720 ca      1  CNT         0.000000
   3078 C         -15.8388   -2.4464   75.8630 ca      1  CNT         0.000000
   3079 C         -15.6050   -3.6517   76.5720 ca      1  CNT         0.000000
   3080 C         -15.2797   -4.8355   75.8630 ca      1  CNT         0.000000
   3081 C         -14.8647   -5.9910   76.5720 ca      1  CNT         0.000000
   3082 C         -14.3625   -7.1113   75.8630 ca      1  CNT         0.000000
   3083 C         -13.7760   -8.1899   76.5720 ca      1  CNT         0.000000
   3084 C         -13.1086   -9.2204   75.8630 ca      1  CNT         0.000000
   3085 C         -12.3643  -10.1968   76.5720 ca      1  CNT         0.000000
   3086 C         -11.5475  -11.1134   75.8630 ca      1  CNT         0.000000
   3087 C         -10.6629  -11.9647   76.5720 ca      1  CNT         0.000000
   3088 C          -9.7157  -12.7458   75.8630 ca      1  CNT         0.000000
   3089 C          -8.7115  -13.4522   76.5720 ca      1  CNT         0.000000
   3090 C          -7.6562  -14.0795   75.8630 ca      1  CNT         0.000000
   3091 C          -6.5560  -14.6243   76.5720 ca      1  CNT         0.000000
   3092 C          -5.4173  -15.0833   75.8630 ca      1  CNT         0.000000
   3093 C          -4.2467  -15.4537   76.5720 ca      1  CNT         0.000000
   3094 C          -3.0513  -15.7334   75.8630 ca      1  CNT         0.000000
   3095 C          -1.8380  -15.9208   76.5720 ca      1  CNT         0.000000
   3096 C          -0.6139  -16.0148   75.8630 ca      1  CNT         0.000000
   3097 C           0.6139  -16.0148   76.5720 ca      1  CNT         0.000000
   3098 C           1.8380  -15.9208   75.8630 ca      1  CNT         0.000000
   3099 C           3.0513  -15.7334   76.5720 ca      1  CNT         0.000000
   3100 C           4.2467  -15.4537   75.8630 ca      1  CNT         0.000000
   3101 C           5.4173  -15.0833   76.5720 ca      1  CNT         0.000000
   3102 C           6.5560  -14.6243   75.8630 ca      1  CNT         0.000000
   3103 C           7.6562  -14.0795   76.5720 ca      1  CNT         0.000000
   3104 C           8.7115  -13.4522   75.8630 ca      1  CNT         0.000000
   3105 C           9.7157  -12.7458   76.5720 ca      1  CNT         0.000000
   3106 C          10.6629  -11.9647   75.8630 ca      1  CNT         0.000000
   3107 C          11.5475  -11.1134   76.5720 ca      1  CNT         0.000000
   3108 C          12.3643  -10.1968   75.8630 ca      1  CNT         0.000000
   3109 C          13.1086   -9.2204   76.5720 ca      1  CNT         0.000000
   3110 C          13.7760   -8.1899   75.8630 ca      1  CNT         0.000000
   3111 C          14.3625   -7.1113   76.5720 ca      1  CNT         0.000000
   3112 C          14.8647   -5.9910   75.8630 ca      1  CNT         0.000000
   3113 C          15.2797   -4.8355   76.5720 ca      1  CNT         0.000000
   3114 C          15.6050   -3.6517   75.8630 ca      1  CNT         0.000000
   3115 C          15.8388   -2.4464   76.5720 ca      1  CNT         0.000000
   3116 C          15.9796   -1.2268   75.8630 ca      1  CNT         0.000000
   3117 C          15.9796    1.2268   82.9530 ca      1  CNT         0.000000
   3118 C          15.8388    2.4464   82.2440 ca      1  CNT         0.000000
   3119 C          15.6050    3.6517   82.9530 ca      1  CNT         0.000000
   3120 C          15.2797    4.8355   82.2440 ca      1  CNT         0.000000
   3121 C          14.8647    5.9910   82.9530 ca      1  CNT         0.000000
   3122 C          14.3625    7.1113   82.2440 ca      1  CNT         0.000000
   3123 C          13.7760    8.1899   82.9530 ca      1  CNT         0.000000
   3124 C          13.1086    9.2204   82.2440 ca      1  CNT         0.000000
   3125 C          12.3643   10.1968   82.9530 ca      1  CNT         0.000000
   3126 C          11.5475   11.1134   82.2440 ca      1  CNT         0.000000
   3127 C          10.6629   11.9647   82.9530 ca      1  CNT         0.000000
   3128 C           9.7157   12.7458   82.2440 ca      1  CNT         0.000000
   3129 C           8.7115   13.4522   82.9530 ca      1  CNT         0.000000
   3130 C           7.6562   14.0795   82.2440 ca      1  CNT         0.000000
   3131 C           6.5560   14.6243   82.9530 ca      1  CNT         0.000000
   3132 C           5.4173   15.0833   82.2440 ca      1  CNT         0.000000
   3133 C           4.2467   15.4537   82.9530 ca      1  CNT         0.000000
   3134 C           3.0513   15.7334   82.2440 ca      1  CNT         0.000000
   3135 C           1.8380   15.9208   82.9530 ca      1  CNT         0.000000
   3136 C           0.6139   16.0148   82.2440 ca      1  CNT         0.000000
   3137 C          -0.6139   16.0148   82.9530 ca      1  CNT         0.000000
   3138 C          -1.8380   15.9208   82.2440 ca      1  CNT         0.000000
   3139 C          -3.0513   15.7334   82.9530 ca      1  CNT         0.000000
   3140 C          -4.2467   15.4537   82.2440 ca      1  CNT         0.000000
   3141 C          -5.4173   15.0833   82.9530 ca      1  CNT         0.000000
   3142 C          -6.5560   14.6243   82.2440 ca      1  CNT         0.000000
   3143 C          -7.6562   14.0795   82.9530 ca      1  CNT         0.000000
   3144 C          -8.7115   13.4522   82.2440 ca      1  CNT         0.000000
   3145 C          -9.7157   12.7458   82.9530 ca      1  CNT         0.000000
   3146 C         -10.6629   11.9647   82.2440 ca      1  CNT         0.000000
   3147 C         -11.5475   11.1134   82.9530 ca      1  CNT         0.000000
   3148 C         -12.3643   10.1968   82.2440 ca      1  CNT         0.000000
   3149 C         -13.1086    9.2204   82.9530 ca      1  CNT         0.000000
   3150 C         -13.7760    8.1899   82.2440 ca      1  CNT         0.000000
   3151 C         -14.3625    7.1113   82.9530 ca      1  CNT         0.000000
   3152 C         -14.8647    5.9910   82.2440 ca      1  CNT         0.000000
   3153 C         -15.2797    4.8355   82.9530 ca      1  CNT         0.000000
   3154 C         -15.6050    3.6517   82.2440 ca      1  CNT         0.000000
   3155 C         -15.8388    2.4464   82.9530 ca      1  CNT         0.000000
   3156 C         -15.9796    1.2268   82.2440 ca      1  CNT         0.000000
   3157 C         -16.0266   -0.0000   82.9530 ca      1  CNT         0.000000
   3158 C         -15.9796   -1.2268   82.2440 ca      1  CNT         0.000000
   3159 C         -15.8388   -2.4464   82.9530 ca      1  CNT         0.000000
   3160 C         -15.6050   -3.6517   82.2440 ca      1  CNT         0.000000
   3161 C         -15.2797   -4.8355   82.9530 ca      1  CNT         0.000000
   3162 C         -14.8647   -5.9910   82.2440 ca      1  CNT         0.000000
   3163 C         -14.3625   -7.1113   82.9530 ca      1  CNT         0.000000
   3164 C         -13.7760   -8.1899   82.2440 ca      1  CNT         0.000000
   3165 C         -13.1086   -9.2204   82.9530 ca      1  CNT         0.000000
   3166 C         -12.3643  -10.1968   82.2440 ca      1  CNT         0.000000
   3167 C         -11.5475  -11.1134   82.9530 ca      1  CNT         0.000000
   3168 C         -10.6629  -11.9647   82.2440 ca      1  CNT         0.000000
   3169 C          -9.7157  -12.7458   82.9530 ca      1  CNT         0.000000
   3170 C          -8.7115  -13.4522   82.2440 ca      1  CNT         0.000000
   3171 C          -7.6562  -14.0795   82.9530 ca      1  CNT         0.000000
   3172 C          -6.5560  -14.6243   82.2440 ca      1  CNT         0.000000
   3173 C          -5.4173  -15.0833   82.9530 ca      1  CNT         0.000000
   3174 C          -4.2467  -15.4537   82.2440 ca      1  CNT         0.000000
   3175 C          -3.0513  -15.7334   82.9530 ca      1  CNT         0.000000
   3176 C          -1.8380  -15.9208   82.2440 ca      1  CNT         0.000000
   3177 C          -0.6139  -16.0148   82.9530 ca      1  CNT         0.000000
   3178 C           0.6139  -16.0148   82.2440 ca      1  CNT         0.000000
   3179 C           1.8380  -15.9208   82.9530 ca      1  CNT         0.000000
   3180 C           3.0513  -15.7334   82.2440 ca      1  CNT         0.000000
   3181 C           4.2467  -15.4537   82.9530 ca      1  CNT         0.000000
   3182 C           5.4173  -15.0833   82.2440 ca      1  CNT         0.000000
   3183 C           6.5560  -14.6243   82.9530 ca      1  CNT         0.000000
   3184 C           7.6562  -14.0795   82.2440 ca      1  CNT         0.000000
   3185 C           8.7115  -13.4522   82.9530 ca      1  CNT         0.000000
   3186 C           9.7157  -12.7458   82.2440 ca      1  CNT         0.000000
   3187 C          10.6629  -11.9647   82.9530 ca      1  CNT         0.000000
   3188 C          11.5475  -11.1134   82.2440 ca      1  CNT         0.000000
   3189 C          12.3643  -10.1968   82.9530 ca      1  CNT         0.000000
   3190 C          13.1086   -9.2204   82.2440 ca      1  CNT         0.000000
   3191 C          13.7760   -8.1899   82.9530 ca      1  CNT         0.000000
   3192 C          14.3625   -7.1113   82.2440 ca      1  CNT         0.000000
   3193 C          14.8647   -5.9910   82.9530 ca      1  CNT         0.000000
   3194 C          15.2797   -4.8355   82.2440 ca      1  CNT         0.000000
   3195 C          15.6050   -3.6517   82.9530 ca      1  CNT         0.000000
   3196 C          15.8388   -2.4464   82.2440 ca      1  CNT         0.000000
   3197 C          15.9796   -1.2268   82.9530 ca      1  CNT         0.000000
   3198 C          16.0266   -0.0000   82.2440 ca      1  CNT         0.000000
   3199 C          16.0266    0.0000   80.8260 ca      1  CNT         0.000000
   3200 C          15.9796    1.2268   80.1170 ca      1  CNT         0.000000
   3201 C          15.8388    2.4464   80.8260 ca      1  CNT         0.000000
   3202 C          15.6050    3.6517   80.1170 ca      1  CNT         0.000000
   3203 C          15.2797    4.8355   80.8260 ca      1  CNT         0.000000
   3204 C          14.8647    5.9910   80.1170 ca      1  CNT         0.000000
   3205 C          14.3625    7.1113   80.8260 ca      1  CNT         0.000000
   3206 C          13.7760    8.1899   80.1170 ca      1  CNT         0.000000
   3207 C          13.1086    9.2204   80.8260 ca      1  CNT         0.000000
   3208 C          12.3643   10.1968   80.1170 ca      1  CNT         0.000000
   3209 C          11.5475   11.1134   80.8260 ca      1  CNT         0.000000
   3210 C          10.6629   11.9647   80.1170 ca      1  CNT         0.000000
   3211 C           9.7157   12.7458   80.8260 ca      1  CNT         0.000000
   3212 C           8.7115   13.4522   80.1170 ca      1  CNT         0.000000
   3213 C           7.6562   14.0795   80.8260 ca      1  CNT         0.000000
   3214 C           6.5560   14.6243   80.1170 ca      1  CNT         0.000000
   3215 C           5.4173   15.0833   80.8260 ca      1  CNT         0.000000
   3216 C           4.2467   15.4537   80.1170 ca      1  CNT         0.000000
   3217 C           3.0513   15.7334   80.8260 ca      1  CNT         0.000000
   3218 C           1.8380   15.9208   80.1170 ca      1  CNT         0.000000
   3219 C           0.6139   16.0148   80.8260 ca      1  CNT         0.000000
   3220 C          -0.6139   16.0148   80.1170 ca      1  CNT         0.000000
   3221 C          -1.8380   15.9208   80.8260 ca      1  CNT         0.000000
   3222 C          -3.0513   15.7334   80.1170 ca      1  CNT         0.000000
   3223 C          -4.2467   15.4537   80.8260 ca      1  CNT         0.000000
   3224 C          -5.4173   15.0833   80.1170 ca      1  CNT         0.000000
   3225 C          -6.5560   14.6243   80.8260 ca      1  CNT         0.000000
   3226 C          -7.6562   14.0795   80.1170 ca      1  CNT         0.000000
   3227 C          -8.7115   13.4522   80.8260 ca      1  CNT         0.000000
   3228 C          -9.7157   12.7458   80.1170 ca      1  CNT         0.000000
   3229 C         -10.6629   11.9647   80.8260 ca      1  CNT         0.000000
   3230 C         -11.5475   11.1134   80.1170 ca      1  CNT         0.000000
   3231 C         -12.3643   10.1968   80.8260 ca      1  CNT         0.000000
   3232 C         -13.1086    9.2204   80.1170 ca      1  CNT         0.000000
   3233 C         -13.7760    8.1899   80.8260 ca      1  CNT         0.000000
   3234 C         -14.3625    7.1113   80.1170 ca      1  CNT         0.000000
   3235 C         -14.8647    5.9910   80.8260 ca      1  CNT         0.000000
   3236 C         -15.2797    4.8355   80.1170 ca      1  CNT         0.000000
   3237 C         -15.6050    3.6517   80.8260 ca      1  CNT         0.000000
   3238 C         -15.8388    2.4464   80.1170 ca      1  CNT         0.000000
   3239 C         -15.9796    1.2268   80.8260 ca      1  CNT         0.000000
   3240 C         -16.0266    0.0000   80.1170 ca      1  CNT         0.000000
   3241 C         -15.9796   -1.2268   80.8260 ca      1  CNT         0.000000
   3242 C         -15.8388   -2.4464   80.1170 ca      1  CNT         0.000000
   3243 C         -15.6050   -3.6517   80.8260 ca      1  CNT         0.000000
   3244 C         -15.2797   -4.8355   80.1170 ca      1  CNT         0.000000
   3245 C         -14.8647   -5.9910   80.8260 ca      1  CNT         0.000000
   3246 C         -14.3625   -7.1113   80.1170 ca      1  CNT         0.000000
   3247 C         -13.7760   -8.1899   80.8260 ca      1  CNT         0.000000
   3248 C         -13.1086   -9.2204   80.1170 ca      1  CNT         0.000000
   3249 C         -12.3643  -10.1968   80.8260 ca      1  CNT         0.000000
   3250 C         -11.5475  -11.1134   80.1170 ca      1  CNT         0.000000
   3251 C         -10.6629  -11.9647   80.8260 ca      1  CNT         0.000000
   3252 C          -9.7157  -12.7458   80.1170 ca      1  CNT         0.000000
   3253 C          -8.7115  -13.4522   80.8260 ca      1  CNT         0.000000
   3254 C          -7.6562  -14.0795   80.1170 ca      1  CNT         0.000000
   3255 C          -6.5560  -14.6243   80.8260 ca      1  CNT         0.000000
   3256 C          -5.4173  -15.0833   80.1170 ca      1  CNT         0.000000
   3257 C          -4.2467  -15.4537   80.8260 ca      1  CNT         0.000000
   3258 C          -3.0513  -15.7334   80.1170 ca      1  CNT         0.000000
   3259 C          -1.8380  -15.9208   80.8260 ca      1  CNT         0.000000
   3260 C          -0.6139  -16.0148   80.1170 ca      1  CNT         0.000000
   3261 C           0.6139  -16.0148   80.8260 ca      1  CNT         0.000000
   3262 C           1.8380  -15.9208   80.1170 ca      1  CNT         0.000000
   3263 C           3.0513  -15.7334   80.8260 ca      1  CNT         0.000000
   3264 C           4.2467  -15.4537   80.1170 ca      1  CNT         0.000000
   3265 C           5.4173  -15.0833   80.8260 ca      1  CNT         0.000000
   3266 C           6.5560  -14.6243   80.1170 ca      1  CNT         0.000000
   3267 C           7.6562  -14.0795   80.8260 ca      1  CNT         0.000000
   3268 C           8.7115  -13.4522   80.1170 ca      1  CNT         0.000000
   3269 C           9.7157  -12.7458   80.8260 ca      1  CNT         0.000000
   3270 C          10.6629  -11.9647   80.1170 ca      1  CNT         0.000000
   3271 C          11.5475  -11.1134   80.8260 ca      1  CNT         0.000000
   3272 C          12.3643  -10.1968   80.1170 ca      1  CNT         0.000000
   3273 C          13.1086   -9.2204   80.8260 ca      1  CNT         0.000000
   3274 C          13.7760   -8.1899   80.1170 ca      1  CNT         0.000000
   3275 C          14.3625   -7.1113   80.8260 ca      1  CNT         0.000000
   3276 C          14.8647   -5.9910   80.1170 ca      1  CNT         0.000000
   3277 C          15.2797   -4.8355   80.8260 ca      1  CNT         0.000000
   3278 C          15.6050   -3.6517   80.1170 ca      1  CNT         0.000000
   3279 C          15.8388   -2.4464   80.8260 ca      1  CNT         0.000000
   3280 C          15.9796   -1.2268   80.1170 ca      1  CNT         0.000000
   3281 C          15.9796    1.2268   87.2070 ca      1  CNT         0.000000
   3282 C          15.8388    2.4464   86.4980 ca      1  CNT         0.000000
   3283 C          15.6050    3.6517   87.2070 ca      1  CNT         0.000000
   3284 C          15.2797    4.8355   86.4980 ca      1  CNT         0.000000
   3285 C          14.8647    5.9910   87.2070 ca      1  CNT         0.000000
   3286 C          14.3625    7.1113   86.4980 ca      1  CNT         0.000000
   3287 C          13.7760    8.1899   87.2070 ca      1  CNT         0.000000
   3288 C          13.1086    9.2204   86.4980 ca      1  CNT         0.000000
   3289 C          12.3643   10.1968   87.2070 ca      1  CNT         0.000000
   3290 C          11.5475   11.1134   86.4980 ca      1  CNT         0.000000
   3291 C          10.6629   11.9647   87.2070 ca      1  CNT         0.000000
   3292 C           9.7157   12.7458   86.4980 ca      1  CNT         0.000000
   3293 C           8.7115   13.4522   87.2070 ca      1  CNT         0.000000
   3294 C           7.6562   14.0795   86.4980 ca      1  CNT         0.000000
   3295 C           6.5560   14.6243   87.2070 ca      1  CNT         0.000000
   3296 C           5.4173   15.0833   86.4980 ca      1  CNT         0.000000
   3297 C           4.2467   15.4537   87.2070 ca      1  CNT         0.000000
   3298 C           3.0513   15.7334   86.4980 ca      1  CNT         0.000000
   3299 C           1.8380   15.9208   87.2070 ca      1  CNT         0.000000
   3300 C           0.6139   16.0148   86.4980 ca      1  CNT         0.000000
   3301 C          -0.6139   16.0148   87.2070 ca      1  CNT         0.000000
   3302 C          -1.8380   15.9208   86.4980 ca      1  CNT         0.000000
   3303 C          -3.0513   15.7334   87.2070 ca      1  CNT         0.000000
   3304 C          -4.2467   15.4537   86.4980 ca      1  CNT         0.000000
   3305 C          -5.4173   15.0833   87.2070 ca      1  CNT         0.000000
   3306 C          -6.5560   14.6243   86.4980 ca      1  CNT         0.000000
   3307 C          -7.6562   14.0795   87.2070 ca      1  CNT         0.000000
   3308 C          -8.7115   13.4522   86.4980 ca      1  CNT         0.000000
   3309 C          -9.7157   12.7458   87.2070 ca      1  CNT         0.000000
   3310 C         -10.6629   11.9647   86.4980 ca      1  CNT         0.000000
   3311 C         -11.5475   11.1134   87.2070 ca      1  CNT         0.000000
   3312 C         -12.3643   10.1968   86.4980 ca      1  CNT         0.000000
   3313 C         -13.1086    9.2204   87.2070 ca      1  CNT         0.000000
   3314 C         -13.7760    8.1899   86.4980 ca      1  CNT         0.000000
   3315 C         -14.3625    7.1113   87.2070 ca      1  CNT         0.000000
   3316 C         -14.8647    5.9910   86.4980 ca      1  CNT         0.000000
   3317 C         -15.2797    4.8355   87.2070 ca      1  CNT         0.000000
   3318 C         -15.6050    3.6517   86.4980 ca      1  CNT         0.000000
   3319 C         -15.8388    2.4464   87.2070 ca      1  CNT         0.000000
   3320 C         -15.9796    1.2268   86.4980 ca      1  CNT         0.000000
   3321 C         -16.0266   -0.0000   87.2070 ca      1  CNT         0.000000
   3322 C         -15.9796   -1.2268   86.4980 ca      1  CNT         0.000000
   3323 C         -15.8388   -2.4464   87.2070 ca      1  CNT         0.000000
   3324 C         -15.6050   -3.6517   86.4980 ca      1  CNT         0.000000
   3325 C         -15.2797   -4.8355   87.2070 ca      1  CNT         0.000000
   3326 C         -14.8647   -5.9910   86.4980 ca      1  CNT         0.000000
   3327 C         -14.3625   -7.1113   87.2070 ca      1  CNT         0.000000
   3328 C         -13.7760   -8.1899   86.4980 ca      1  CNT         0.000000
   3329 C         -13.1086   -9.2204   87.2070 ca      1  CNT         0.000000
   3330 C         -12.3643  -10.1968   86.4980 ca      1  CNT         0.000000
   3331 C         -11.5475  -11.1134   87.2070 ca      1  CNT         0.000000
   3332 C         -10.6629  -11.9647   86.4980 ca      1  CNT         0.000000
   3333 C          -9.7157  -12.7458   87.2070 ca      1  CNT         0.000000
   3334 C          -8.7115  -13.4522   86.4980 ca      1  CNT         0.000000
   3335 C          -7.6562  -14.0795   87.2070 ca      1  CNT         0.000000
   3336 C          -6.5560  -14.6243   86.4980 ca      1  CNT         0.000000
   3337 C          -5.4173  -15.0833   87.2070 ca      1  CNT         0.000000
   3338 C          -4.2467  -15.4537   86.4980 ca      1  CNT         0.000000
   3339 C          -3.0513  -15.7334   87.2070 ca      1  CNT         0.000000
   3340 C          -1.8380  -15.9208   86.4980 ca      1  CNT         0.000000
   3341 C          -0.6139  -16.0148   87.2070 ca      1  CNT         0.000000
   3342 C           0.6139  -16.0148   86.4980 ca      1  CNT         0.000000
   3343 C           1.8380  -15.9208   87.2070 ca      1  CNT         0.000000
   3344 C           3.0513  -15.7334   86.4980 ca      1  CNT         0.000000
   3345 C           4.2467  -15.4537   87.2070 ca      1  CNT         0.000000
   3346 C           5.4173  -15.0833   86.4980 ca      1  CNT         0.000000
   3347 C           6.5560  -14.6243   87.2070 ca      1  CNT         0.000000
   3348 C           7.6562  -14.0795   86.4980 ca      1  CNT         0.000000
   3349 C           8.7115  -13.4522   87.2070 ca      1  CNT         0.000000
   3350 C           9.7157  -12.7458   86.4980 ca      1  CNT         0.000000
   3351 C          10.6629  -11.9647   87.2070 ca      1  CNT         0.000000
   3352 C          11.5475  -11.1134   86.4980 ca      1  CNT         0.000000
   3353 C          12.3643  -10.1968   87.2070 ca      1  CNT         0.000000
   3354 C          13.1086   -9.2204   86.4980 ca      1  CNT         0.000000
   3355 C          13.7760   -8.1899   87.2070 ca      1  CNT         0.000000
   3356 C          14.3625   -7.1113   86.4980 ca      1  CNT         0.000000
   3357 C          14.8647   -5.9910   87.2070 ca      1  CNT         0.000000
   3358 C          15.2797   -4.8355   86.4980 ca      1  CNT         0.000000
   3359 C          15.6050   -3.6517   87.2070 ca      1  CNT         0.000000
   3360 C          15.8388   -2.4464   86.4980 ca      1  CNT         0.000000
   3361 C          15.9796   -1.2268   87.2070 ca      1  CNT         0.000000
   3362 C          16.0266   -0.0000   86.4980 ca      1  CNT         0.000000
   3363 C          16.0266    0.0000   85.0800 ca      1  CNT         0.000000
   3364 C          15.9796    1.2268   84.3710 ca      1  CNT         0.000000
   3365 C          15.8388    2.4464   85.0800 ca      1  CNT         0.000000
   3366 C          15.6050    3.6517   84.3710 ca      1  CNT         0.000000
   3367 C          15.2797    4.8355   85.0800 ca      1  CNT         0.000000
   3368 C          14.8647    5.9910   84.3710 ca      1  CNT         0.000000
   3369 C          14.3625    7.1113   85.0800 ca      1  CNT         0.000000
   3370 C          13.7760    8.1899   84.3710 ca      1  CNT         0.000000
   3371 C          13.1086    9.2204   85.0800 ca      1  CNT         0.000000
   3372 C          12.3643   10.1968   84.3710 ca      1  CNT         0.000000
   3373 C          11.5475   11.1134   85.0800 ca      1  CNT         0.000000
   3374 C          10.6629   11.9647   84.3710 ca      1  CNT         0.000000
   3375 C           9.7157   12.7458   85.0800 ca      1  CNT         0.000000
   3376 C           8.7115   13.4522   84.3710 ca      1  CNT         0.000000
   3377 C           7.6562   14.0795   85.0800 ca      1  CNT         0.000000
   3378 C           6.5560   14.6243   84.3710 ca      1  CNT         0.000000
   3379 C           5.4173   15.0833   85.0800 ca      1  CNT         0.000000
   3380 C           4.2467   15.4537   84.3710 ca      1  CNT         0.000000
   3381 C           3.0513   15.7334   85.0800 ca      1  CNT         0.000000
   3382 C           1.8380   15.9208   84.3710 ca      1  CNT         0.000000
   3383 C           0.6139   16.0148   85.0800 ca      1  CNT         0.000000
   3384 C          -0.6139   16.0148   84.3710 ca      1  CNT         0.000000
   3385 C          -1.8380   15.9208   85.0800 ca      1  CNT         0.000000
   3386 C          -3.0513   15.7334   84.3710 ca      1  CNT         0.000000
   3387 C          -4.2467   15.4537   85.0800 ca      1  CNT         0.000000
   3388 C          -5.4173   15.0833   84.3710 ca      1  CNT         0.000000
   3389 C          -6.5560   14.6243   85.0800 ca      1  CNT         0.000000
   3390 C          -7.6562   14.0795   84.3710 ca      1  CNT         0.000000
   3391 C          -8.7115   13.4522   85.0800 ca      1  CNT         0.000000
   3392 C          -9.7157   12.7458   84.3710 ca      1  CNT         0.000000
   3393 C         -10.6629   11.9647   85.0800 ca      1  CNT         0.000000
   3394 C         -11.5475   11.1134   84.3710 ca      1  CNT         0.000000
   3395 C         -12.3643   10.1968   85.0800 ca      1  CNT         0.000000
   3396 C         -13.1086    9.2204   84.3710 ca      1  CNT         0.000000
   3397 C         -13.7760    8.1899   85.0800 ca      1  CNT         0.000000
   3398 C         -14.3625    7.1113   84.3710 ca      1  CNT         0.000000
   3399 C         -14.8647    5.9910   85.0800 ca      1  CNT         0.000000
   3400 C         -15.2797    4.8355   84.3710 ca      1  CNT         0.000000
   3401 C         -15.6050    3.6517   85.0800 ca      1  CNT         0.000000
   3402 C         -15.8388    2.4464   84.3710 ca      1  CNT         0.000000
   3403 C         -15.9796    1.2268   85.0800 ca      1  CNT         0.000000
   3404 C         -16.0266    0.0000   84.3710 ca      1  CNT         0.000000
   3405 C         -15.9796   -1.2268   85.0800 ca      1  CNT         0.000000
   3406 C         -15.8388   -2.4464   84.3710 ca      1  CNT         0.000000
   3407 C         -15.6050   -3.6517   85.0800 ca      1  CNT         0.000000
   3408 C         -15.2797   -4.8355   84.3710 ca      1  CNT         0.000000
   3409 C         -14.8647   -5.9910   85.0800 ca      1  CNT         0.000000
   3410 C         -14.3625   -7.1113   84.3710 ca      1  CNT         0.000000
   3411 C         -13.7760   -8.1899   85.0800 ca      1  CNT         0.000000
   3412 C         -13.1086   -9.2204   84.3710 ca      1  CNT         0.000000
   3413 C         -12.3643  -10.1968   85.0800 ca      1  CNT         0.000000
   3414 C         -11.5475  -11.1134   84.3710 ca      1  CNT         0.000000
   3415 C         -10.6629  -11.9647   85.0800 ca      1  CNT         0.000000
   3416 C          -9.7157  -12.7458   84.3710 ca      1  CNT         0.000000
   3417 C          -8.7115  -13.4522   85.0800 ca      1  CNT         0.000000
   3418 C          -7.6562  -14.0795   84.3710 ca      1  CNT         0.000000
   3419 C          -6.5560  -14.6243   85.0800 ca      1  CNT         0.000000
   3420 C          -5.4173  -15.0833   84.3710 ca      1  CNT         0.000000
   3421 C          -4.2467  -15.4537   85.0800 ca      1  CNT         0.000000
   3422 C          -3.0513  -15.7334   84.3710 ca      1  CNT         0.000000
   3423 C          -1.8380  -15.9208   85.0800 ca      1  CNT         0.000000
   3424 C          -0.6139  -16.0148   84.3710 ca      1  CNT         0.000000
   3425 C           0.6139  -16.0148   85.0800 ca      1  CNT         0.000000
   3426 C           1.8380  -15.9208   84.3710 ca      1  CNT         0.000000
   3427 C           3.0513  -15.7334   85.0800 ca      1  CNT         0.000000
   3428 C           4.2467  -15.4537   84.3710 ca      1  CNT         0.000000
   3429 C           5.4173  -15.0833   85.0800 ca      1  CNT         0.000000
   3430 C           6.5560  -14.6243   84.3710 ca      1  CNT         0.000000
   3431 C           7.6562  -14.0795   85.0800 ca      1  CNT         0.000000
   3432 C           8.7115  -13.4522   84.3710 ca      1  CNT         0.000000
   3433 C           9.7157  -12.7458   85.0800 ca      1  CNT         0.000000
   3434 C          10.6629  -11.9647   84.3710 ca      1  CNT         0.000000
   3435 C          11.5475  -11.1134   85.0800 ca      1  CNT         0.000000
   3436 C          12.3643  -10.1968   84.3710 ca      1  CNT         0.000000
   3437 C          13.1086   -9.2204   85.0800 ca      1  CNT         0.000000
   3438 C          13.7760   -8.1899   84.3710 ca      1  CNT         0.000000
   3439 C          14.3625   -7.1113   85.0800 ca      1  CNT         0.000000
   3440 C          14.8647   -5.9910   84.3710 ca      1  CNT         0.000000
   3441 C          15.2797   -4.8355   85.0800 ca      1  CNT         0.000000
   3442 C          15.6050   -3.6517   84.3710 ca      1  CNT         0.000000
   3443 C          15.8388   -2.4464   85.0800 ca      1  CNT         0.000000
   3444 C          15.9796   -1.2268   84.3710 ca      1  CNT         0.000000
   3445 C          15.9796    1.2268   91.4610 ca      1  CNT         0.000000
   3446 C          15.8388    2.4464   90.7520 ca      1  CNT         0.000000
   3447 C          15.6050    3.6517   91.4610 ca      1  CNT         0.000000
   3448 C          15.2797    4.8355   90.7520 ca      1  CNT         0.000000
   3449 C          14.8647    5.9910   91.4610 ca      1  CNT         0.000000
   3450 C          14.3625    7.1113   90.7520 ca      1  CNT         0.000000
   3451 C          13.7760    8.1899   91.4610 ca      1  CNT         0.000000
   3452 C          13.1086    9.2204   90.7520 ca      1  CNT         0.000000
   3453 C          12.3643   10.1968   91.4610 ca      1  CNT         0.000000
   3454 C          11.5475   11.1134   90.7520 ca      1  CNT         0.000000
   3455 C          10.6629   11.9647   91.4610 ca      1  CNT         0.000000
   3456 C           9.7157   12.7458   90.7520 ca      1  CNT         0.000000
   3457 C           8.7115   13.4522   91.4610 ca      1  CNT         0.000000
   3458 C           7.6562   14.0795   90.7520 ca      1  CNT         0.000000
   3459 C           6.5560   14.6243   91.4610 ca      1  CNT         0.000000
   3460 C           5.4173   15.0833   90.7520 ca      1  CNT         0.000000
   3461 C           4.2467   15.4537   91.4610 ca      1  CNT         0.000000
   3462 C           3.0513   15.7334   90.7520 ca      1  CNT         0.000000
   3463 C           1.8380   15.9208   91.4610 ca      1  CNT         0.000000
   3464 C           0.6139   16.0148   90.7520 ca      1  CNT         0.000000
   3465 C          -0.6139   16.0148   91.4610 ca      1  CNT         0.000000
   3466 C          -1.8380   15.9208   90.7520 ca      1  CNT         0.000000
   3467 C          -3.0513   15.7334   91.4610 ca      1  CNT         0.000000
   3468 C          -4.2467   15.4537   90.7520 ca      1  CNT         0.000000
   3469 C          -5.4173   15.0833   91.4610 ca      1  CNT         0.000000
   3470 C          -6.5560   14.6243   90.7520 ca      1  CNT         0.000000
   3471 C          -7.6562   14.0795   91.4610 ca      1  CNT         0.000000
   3472 C          -8.7115   13.4522   90.7520 ca      1  CNT         0.000000
   3473 C          -9.7157   12.7458   91.4610 ca      1  CNT         0.000000
   3474 C         -10.6629   11.9647   90.7520 ca      1  CNT         0.000000
   3475 C         -11.5475   11.1134   91.4610 ca      1  CNT         0.000000
   3476 C         -12.3643   10.1968   90.7520 ca      1  CNT         0.000000
   3477 C         -13.1086    9.2204   91.4610 ca      1  CNT         0.000000
   3478 C         -13.7760    8.1899   90.7520 ca      1  CNT         0.000000
   3479 C         -14.3625    7.1113   91.4610 ca      1  CNT         0.000000
   3480 C         -14.8647    5.9910   90.7520 ca      1  CNT         0.000000
   3481 C         -15.2797    4.8355   91.4610 ca      1  CNT         0.000000
   3482 C         -15.6050    3.6517   90.7520 ca      1  CNT         0.000000
   3483 C         -15.8388    2.4464   91.4610 ca      1  CNT         0.000000
   3484 C         -15.9796    1.2268   90.7520 ca      1  CNT         0.000000
   3485 C         -16.0266   -0.0000   91.4610 ca      1  CNT         0.000000
   3486 C         -15.9796   -1.2268   90.7520 ca      1  CNT         0.000000
   3487 C         -15.8388   -2.4464   91.4610 ca      1  CNT         0.000000
   3488 C         -15.6050   -3.6517   90.7520 ca      1  CNT         0.000000
   3489 C         -15.2797   -4.8355   91.4610 ca      1  CNT         0.000000
   3490 C         -14.8647   -5.9910   90.7520 ca      1  CNT         0.000000
   3491 C         -14.3625   -7.1113   91.4610 ca      1  CNT         0.000000
   3492 C         -13.7760   -8.1899   90.7520 ca      1  CNT         0.000000
   3493 C         -13.1086   -9.2204   91.4610 ca      1  CNT         0.000000
   3494 C         -12.3643  -10.1968   90.7520 ca      1  CNT         0.000000
   3495 C         -11.5475  -11.1134   91.4610 ca      1  CNT         0.000000
   3496 C         -10.6629  -11.9647   90.7520 ca      1  CNT         0.000000
   3497 C          -9.7157  -12.7458   91.4610 ca      1  CNT         0.000000
   3498 C          -8.7115  -13.4522   90.7520 ca      1  CNT         0.000000
   3499 C          -7.6562  -14.0795   91.4610 ca      1  CNT         0.000000
   3500 C          -6.5560  -14.6243   90.7520 ca      1  CNT         0.000000
   3501 C          -5.4173  -15.0833   91.4610 ca      1  CNT         0.000000
   3502 C          -4.2467  -15.4537   90.7520 ca      1  CNT         0.000000
   3503 C          -3.0513  -15.7334   91.4610 ca      1  CNT         0.000000
   3504 C          -1.8380  -15.9208   90.7520 ca      1  CNT         0.000000
   3505 C          -0.6139  -16.0148   91.4610 ca      1  CNT         0.000000
   3506 C           0.6139  -16.0148   90.7520 ca      1  CNT         0.000000
   3507 C           1.8380  -15.9208   91.4610 ca      1  CNT         0.000000
   3508 C           3.0513  -15.7334   90.7520 ca      1  CNT         0.000000
   3509 C           4.2467  -15.4537   91.4610 ca      1  CNT         0.000000
   3510 C           5.4173  -15.0833   90.7520 ca      1  CNT         0.000000
   3511 C           6.5560  -14.6243   91.4610 ca      1  CNT         0.000000
   3512 C           7.6562  -14.0795   90.7520 ca      1  CNT         0.000000
   3513 C           8.7115  -13.4522   91.4610 ca      1  CNT         0.000000
   3514 C           9.7157  -12.7458   90.7520 ca      1  CNT         0.000000
   3515 C          10.6629  -11.9647   91.4610 ca      1  CNT         0.000000
   3516 C          11.5475  -11.1134   90.7520 ca      1  CNT         0.000000
   3517 C          12.3643  -10.1968   91.4610 ca      1  CNT         0.000000
   3518 C          13.1086   -9.2204   90.7520 ca      1  CNT         0.000000
   3519 C          13.7760   -8.1899   91.4610 ca      1  CNT         0.000000
   3520 C          14.3625   -7.1113   90.7520 ca      1  CNT         0.000000
   3521 C          14.8647   -5.9910   91.4610 ca      1  CNT         0.000000
   3522 C          15.2797   -4.8355   90.7520 ca      1  CNT         0.000000
   3523 C          15.6050   -3.6517   91.4610 ca      1  CNT         0.000000
   3524 C          15.8388   -2.4464   90.7520 ca      1  CNT         0.000000
   3525 C          15.9796   -1.2268   91.4610 ca      1  CNT         0.000000
   3526 C          16.0266   -0.0000   90.7520 ca      1  CNT         0.000000
   3527 C          16.0266    0.0000   89.3340 ca      1  CNT         0.000000
   3528 C          15.9796    1.2268   88.6250 ca      1  CNT         0.000000
   3529 C          15.8388    2.4464   89.3340 ca      1  CNT         0.000000
   3530 C          15.6050    3.6517   88.6250 ca      1  CNT         0.000000
   3531 C          15.2797    4.8355   89.3340 ca      1  CNT         0.000000
   3532 C          14.8647    5.9910   88.6250 ca      1  CNT         0.000000
   3533 C          14.3625    7.1113   89.3340 ca      1  CNT         0.000000
   3534 C          13.7760    8.1899   88.6250 ca      1  CNT         0.000000
   3535 C          13.1086    9.2204   89.3340 ca      1  CNT         0.000000
   3536 C          12.3643   10.1968   88.6250 ca      1  CNT         0.000000
   3537 C          11.5475   11.1134   89.3340 ca      1  CNT         0.000000
   3538 C          10.6629   11.9647   88.6250 ca      1  CNT         0.000000
   3539 C           9.7157   12.7458   89.3340 ca      1  CNT         0.000000
   3540 C           8.7115   13.4522   88.6250 ca      1  CNT         0.000000
   3541 C           7.6562   14.0795   89.3340 ca      1  CNT         0.000000
   3542 C           6.5560   14.6243   88.6250 ca      1  CNT         0.000000
   3543 C           5.4173   15.0833   89.3340 ca      1  CNT         0.000000
   3544 C           4.2467   15.4537   88.6250 ca      1  CNT         0.000000
   3545 C           3.0513   15.7334   89.3340 ca      1  CNT         0.000000
   3546 C           1.8380   15.9208   88.6250 ca      1  CNT         0.000000
   3547 C           0.6139   16.0148   89.3340 ca      1  CNT         0.000000
   3548 C          -0.6139   16.0148   88.6250 ca      1  CNT         0.000000
   3549 C          -1.8380   15.9208   89.3340 ca      1  CNT         0.000000
   3550 C          -3.0513   15.7334   88.6250 ca      1  CNT         0.000000
   3551 C          -4.2467   15.4537   89.3340 ca      1  CNT         0.000000
   3552 C          -5.4173   15.0833   88.6250 ca      1  CNT         0.000000
   3553 C          -6.5560   14.6243   89.3340 ca      1  CNT         0.000000
   3554 C          -7.6562   14.0795   88.6250 ca      1  CNT         0.000000
   3555 C          -8.7115   13.4522   89.3340 ca      1  CNT         0.000000
   3556 C          -9.7157   12.7458   88.6250 ca      1  CNT         0.000000
   3557 C         -10.6629   11.9647   89.3340 ca      1  CNT         0.000000
   3558 C         -11.5475   11.1134   88.6250 ca      1  CNT         0.000000
   3559 C         -12.3643   10.1968   89.3340 ca      1  CNT         0.000000
   3560 C         -13.1086    9.2204   88.6250 ca      1  CNT         0.000000
   3561 C         -13.7760    8.1899   89.3340 ca      1  CNT         0.000000
   3562 C         -14.3625    7.1113   88.6250 ca      1  CNT         0.000000
   3563 C         -14.8647    5.9910   89.3340 ca      1  CNT         0.000000
   3564 C         -15.2797    4.8355   88.6250 ca      1  CNT         0.000000
   3565 C         -15.6050    3.6517   89.3340 ca      1  CNT         0.000000
   3566 C         -15.8388    2.4464   88.6250 ca      1  CNT         0.000000
   3567 C         -15.9796    1.2268   89.3340 ca      1  CNT         0.000000
   3568 C         -16.0266    0.0000   88.6250 ca      1  CNT         0.000000
   3569 C         -15.9796   -1.2268   89.3340 ca      1  CNT         0.000000
   3570 C         -15.8388   -2.4464   88.6250 ca      1  CNT         0.000000
   3571 C         -15.6050   -3.6517   89.3340 ca      1  CNT         0.000000
   3572 C         -15.2797   -4.8355   88.6250 ca      1  CNT         0.000000
   3573 C         -14.8647   -5.9910   89.3340 ca      1  CNT         0.000000
   3574 C         -14.3625   -7.1113   88.6250 ca      1  CNT         0.000000
   3575 C         -13.7760   -8.1899   89.3340 ca      1  CNT         0.000000
   3576 C         -13.1086   -9.2204   88.6250 ca      1  CNT         0.000000
   3577 C         -12.3643  -10.1968   89.3340 ca      1  CNT         0.000000
   3578 C         -11.5475  -11.1134   88.6250 ca      1  CNT         0.000000
   3579 C         -10.6629  -11.9647   89.3340 ca      1  CNT         0.000000
   3580 C          -9.7157  -12.7458   88.6250 ca      1  CNT         0.000000
   3581 C          -8.7115  -13.4522   89.3340 ca      1  CNT         0.000000
   3582 C          -7.6562  -14.0795   88.6250 ca      1  CNT         0.000000
   3583 C          -6.5560  -14.6243   89.3340 ca      1  CNT         0.000000
   3584 C          -5.4173  -15.0833   88.6250 ca      1  CNT         0.000000
   3585 C          -4.2467  -15.4537   89.3340 ca      1  CNT         0.000000
   3586 C          -3.0513  -15.7334   88.6250 ca      1  CNT         0.000000
   3587 C          -1.8380  -15.9208   89.3340 ca      1  CNT         0.000000
   3588 C          -0.6139  -16.0148   88.6250 ca      1  CNT         0.000000
   3589 C           0.6139  -16.0148   89.3340 ca      1  CNT         0.000000
   3590 C           1.8380  -15.9208   88.6250 ca      1  CNT         0.000000
   3591 C           3.0513  -15.7334   89.3340 ca      1  CNT         0.000000
   3592 C           4.2467  -15.4537   88.6250 ca      1  CNT         0.000000
   3593 C           5.4173  -15.0833   89.3340 ca      1  CNT         0.000000
   3594 C           6.5560  -14.6243   88.6250 ca      1  CNT         0.000000
   3595 C           7.6562  -14.0795   89.3340 ca      1  CNT         0.000000
   3596 C           8.7115  -13.4522   88.6250 ca      1  CNT         0.000000
   3597 C           9.7157  -12.7458   89.3340 ca      1  CNT         0.000000
   3598 C          10.6629  -11.9647   88.6250 ca      1  CNT         0.000000
   3599 C          11.5475  -11.1134   89.3340 ca      1  CNT         0.000000
   3600 C          12.3643  -10.1968   88.6250 ca      1  CNT         0.000000
   3601 C          13.1086   -9.2204   89.3340 ca      1  CNT         0.000000
   3602 C          13.7760   -8.1899   88.6250 ca      1  CNT         0.000000
   3603 C          14.3625   -7.1113   89.3340 ca      1  CNT         0.000000
   3604 C          14.8647   -5.9910   88.6250 ca      1  CNT         0.000000
   3605 C          15.2797   -4.8355   89.3340 ca      1  CNT         0.000000
   3606 C          15.6050   -3.6517   88.6250 ca      1  CNT         0.000000
   3607 C          15.8388   -2.4464   89.3340 ca      1  CNT         0.000000
   3608 C          15.9796   -1.2268   88.6250 ca      1  CNT         0.000000
   3609 C          15.9796    1.2268   95.7150 ca      1  CNT         0.000000
   3610 C          15.8388    2.4464   95.0060 ca      1  CNT         0.000000
   3611 C          15.6050    3.6517   95.7150 ca      1  CNT         0.000000
   3612 C          15.2797    4.8355   95.0060 ca      1  CNT         0.000000
   3613 C          14.8647    5.9910   95.7150 ca      1  CNT         0.000000
   3614 C          14.3625    7.1113   95.0060 ca      1  CNT         0.000000
   3615 C          13.7760    8.1899   95.7150 ca      1  CNT         0.000000
   3616 C          13.1086    9.2204   95.0060 ca      1  CNT         0.000000
   3617 C          12.3643   10.1968   95.7150 ca      1  CNT         0.000000
   3618 C          11.5475   11.1134   95.0060 ca      1  CNT         0.000000
   3619 C          10.6629   11.9647   95.7150 ca      1  CNT         0.000000
   3620 C           9.7157   12.7458   95.0060 ca      1  CNT         0.000000
   3621 C           8.7115   13.4522   95.7150 ca      1  CNT         0.000000
   3622 C           7.6562   14.0795   95.0060 ca      1  CNT         0.000000
   3623 C           6.5560   14.6243   95.7150 ca      1  CNT         0.000000
   3624 C           5.4173   15.0833   95.0060 ca      1  CNT         0.000000
   3625 C           4.2467   15.4537   95.7150 ca      1  CNT         0.000000
   3626 C           3.0513   15.7334   95.0060 ca      1  CNT         0.000000
   3627 C           1.8380   15.9208   95.7150 ca      1  CNT         0.000000
   3628 C           0.6139   16.0148   95.0060 ca      1  CNT         0.000000
   3629 C          -0.6139   16.0148   95.7150 ca      1  CNT         0.000000
   3630 C          -1.8380   15.9208   95.0060 ca      1  CNT         0.000000
   3631 C          -3.0513   15.7334   95.7150 ca      1  CNT         0.000000
   3632 C          -4.2467   15.4537   95.0060 ca      1  CNT         0.000000
   3633 C          -5.4173   15.0833   95.7150 ca      1  CNT         0.000000
   3634 C          -6.5560   14.6243   95.0060 ca      1  CNT         0.000000
   3635 C          -7.6562   14.0795   95.7150 ca      1  CNT         0.000000
   3636 C          -8.7115   13.4522   95.0060 ca      1  CNT         0.000000
   3637 C          -9.7157   12.7458   95.7150 ca      1  CNT         0.000000
   3638 C         -10.6629   11.9647   95.0060 ca      1  CNT         0.000000
   3639 C         -11.5475   11.1134   95.7150 ca      1  CNT         0.000000
   3640 C         -12.3643   10.1968   95.0060 ca      1  CNT         0.000000
   3641 C         -13.1086    9.2204   95.7150 ca      1  CNT         0.000000
   3642 C         -13.7760    8.1899   95.0060 ca      1  CNT         0.000000
   3643 C         -14.3625    7.1113   95.7150 ca      1  CNT         0.000000
   3644 C         -14.8647    5.9910   95.0060 ca      1  CNT         0.000000
   3645 C         -15.2797    4.8355   95.7150 ca      1  CNT         0.000000
   3646 C         -15.6050    3.6517   95.0060 ca      1  CNT         0.000000
   3647 C         -15.8388    2.4464   95.7150 ca      1  CNT         0.000000
   3648 C         -15.9796    1.2268   95.0060 ca      1  CNT         0.000000
   3649 C         -16.0266   -0.0000   95.7150 ca      1  CNT         0.000000
   3650 C         -15.9796   -1.2268   95.0060 ca      1  CNT         0.000000
   3651 C         -15.8388   -2.4464   95.7150 ca      1  CNT         0.000000
   3652 C         -15.6050   -3.6517   95.0060 ca      1  CNT         0.000000
   3653 C         -15.2797   -4.8355   95.7150 ca      1  CNT         0.000000
   3654 C         -14.8647   -5.9910   95.0060 ca      1  CNT         0.000000
   3655 C         -14.3625   -7.1113   95.7150 ca      1  CNT         0.000000
   3656 C         -13.7760   -8.1899   95.0060 ca      1  CNT         0.000000
   3657 C         -13.1086   -9.2204   95.7150 ca      1  CNT         0.000000
   3658 C         -12.3643  -10.1968   95.0060 ca      1  CNT         0.000000
   3659 C         -11.5475  -11.1134   95.7150 ca      1  CNT         0.000000
   3660 C         -10.6629  -11.9647   95.0060 ca      1  CNT         0.000000
   3661 C          -9.7157  -12.7458   95.7150 ca      1  CNT         0.000000
   3662 C          -8.7115  -13.4522   95.0060 ca      1  CNT         0.000000
   3663 C          -7.6562  -14.0795   95.7150 ca      1  CNT         0.000000
   3664 C          -6.5560  -14.6243   95.0060 ca      1  CNT         0.000000
   3665 C          -5.4173  -15.0833   95.7150 ca      1  CNT         0.000000
   3666 C          -4.2467  -15.4537   95.0060 ca      1  CNT         0.000000
   3667 C          -3.0513  -15.7334   95.7150 ca      1  CNT         0.000000
   3668 C          -1.8380  -15.9208   95.0060 ca      1  CNT         0.000000
   3669 C          -0.6139  -16.0148   95.7150 ca      1  CNT         0.000000
   3670 C           0.6139  -16.0148   95.0060 ca      1  CNT         0.000000
   3671 C           1.8380  -15.9208   95.7150 ca      1  CNT         0.000000
   3672 C           3.0513  -15.7334   95.0060 ca      1  CNT         0.000000
   3673 C           4.2467  -15.4537   95.7150 ca      1  CNT         0.000000
   3674 C           5.4173  -15.0833   95.0060 ca      1  CNT         0.000000
   3675 C           6.5560  -14.6243   95.7150 ca      1  CNT         0.000000
   3676 C           7.6562  -14.0795   95.0060 ca      1  CNT         0.000000
   3677 C           8.7115  -13.4522   95.7150 ca      1  CNT         0.000000
   3678 C           9.7157  -12.7458   95.0060 ca      1  CNT         0.000000
   3679 C          10.6629  -11.9647   95.7150 ca      1  CNT         0.000000
   3680 C          11.5475  -11.1134   95.0060 ca      1  CNT         0.000000
   3681 C          12.3643  -10.1968   95.7150 ca      1  CNT         0.000000
   3682 C          13.1086   -9.2204   95.0060 ca      1  CNT         0.000000
   3683 C          13.7760   -8.1899   95.7150 ca      1  CNT         0.000000
   3684 C          14.3625   -7.1113   95.0060 ca      1  CNT         0.000000
   3685 C          14.8647   -5.9910   95.7150 ca      1  CNT         0.000000
   3686 C          15.2797   -4.8355   95.0060 ca      1  CNT         0.000000
   3687 C          15.6050   -3.6517   95.7150 ca      1  CNT         0.000000
   3688 C          15.8388   -2.4464   95.0060 ca      1  CNT         0.000000
   3689 C          15.9796   -1.2268   95.7150 ca      1  CNT         0.000000
   3690 C          16.0266   -0.0000   95.0060 ca      1  CNT         0.000000
   3691 C          16.0266    0.0000   93.5880 ca      1  CNT         0.000000
   3692 C          15.9796    1.2268   92.8790 ca      1  CNT         0.000000
   3693 C          15.8388    2.4464   93.5880 ca      1  CNT         0.000000
   3694 C          15.6050    3.6517   92.8790 ca      1  CNT         0.000000
   3695 C          15.2797    4.8355   93.5880 ca      1  CNT         0.000000
   3696 C          14.8647    5.9910   92.8790 ca      1  CNT         0.000000
   3697 C          14.3625    7.1113   93.5880 ca      1  CNT         0.000000
   3698 C          13.7760    8.1899   92.8790 ca      1  CNT         0.000000
   3699 C          13.1086    9.2204   93.5880 ca      1  CNT         0.000000
   3700 C          12.3643   10.1968   92.8790 ca      1  CNT         0.000000
   3701 C          11.5475   11.1134   93.5880 ca      1  CNT         0.000000
   3702 C          10.6629   11.9647   92.8790 ca      1  CNT         0.000000
   3703 C           9.7157   12.7458   93.5880 ca      1  CNT         0.000000
   3704 C           8.7115   13.4522   92.8790 ca      1  CNT         0.000000
   3705 C           7.6562   14.0795   93.5880 ca      1  CNT         0.000000
   3706 C           6.5560   14.6243   92.8790 ca      1  CNT         0.000000
   3707 C           5.4173   15.0833   93.5880 ca      1  CNT         0.000000
   3708 C           4.2467   15.4537   92.8790 ca      1  CNT         0.000000
   3709 C           3.0513   15.7334   93.5880 ca      1  CNT         0.000000
   3710 C           1.8380   15.9208   92.8790 ca      1  CNT         0.000000
   3711 C           0.6139   16.0148   93.5880 ca      1  CNT         0.000000
   3712 C          -0.6139   16.0148   92.8790 ca      1  CNT         0.000000
   3713 C          -1.8380   15.9208   93.5880 ca      1  CNT         0.000000
   3714 C          -3.0513   15.7334   92.8790 ca      1  CNT         0.000000
   3715 C          -4.2467   15.4537   93.5880 ca      1  CNT         0.000000
   3716 C          -5.4173   15.0833   92.8790 ca      1  CNT         0.000000
   3717 C          -6.5560   14.6243   93.5880 ca      1  CNT         0.000000
   3718 C          -7.6562   14.0795   92.8790 ca      1  CNT         0.000000
   3719 C          -8.7115   13.4522   93.5880 ca      1  CNT         0.000000
   3720 C          -9.7157   12.7458   92.8790 ca      1  CNT         0.000000
   3721 C         -10.6629   11.9647   93.5880 ca      1  CNT         0.000000
   3722 C         -11.5475   11.1134   92.8790 ca      1  CNT         0.000000
   3723 C         -12.3643   10.1968   93.5880 ca      1  CNT         0.000000
   3724 C         -13.1086    9.2204   92.8790 ca      1  CNT         0.000000
   3725 C         -13.7760    8.1899   93.5880 ca      1  CNT         0.000000
   3726 C         -14.3625    7.1113   92.8790 ca      1  CNT         0.000000
   3727 C         -14.8647    5.9910   93.5880 ca      1  CNT         0.000000
   3728 C         -15.2797    4.8355   92.8790 ca      1  CNT         0.000000
   3729 C         -15.6050    3.6517   93.5880 ca      1  CNT         0.000000
   3730 C         -15.8388    2.4464   92.8790 ca      1  CNT         0.000000
   3731 C         -15.9796    1.2268   93.5880 ca      1  CNT         0.000000
   3732 C         -16.0266    0.0000   92.8790 ca      1  CNT         0.000000
   3733 C         -15.9796   -1.2268   93.5880 ca      1  CNT         0.000000
   3734 C         -15.8388   -2.4464   92.8790 ca      1  CNT         0.000000
   3735 C         -15.6050   -3.6517   93.5880 ca      1  CNT         0.000000
   3736 C         -15.2797   -4.8355   92.8790 ca      1  CNT         0.000000
   3737 C         -14.8647   -5.9910   93.5880 ca      1  CNT         0.000000
   3738 C         -14.3625   -7.1113   92.8790 ca      1  CNT         0.000000
   3739 C         -13.7760   -8.1899   93.5880 ca      1  CNT         0.000000
   3740 C         -13.1086   -9.2204   92.8790 ca      1  CNT         0.000000
   3741 C         -12.3643  -10.1968   93.5880 ca      1  CNT         0.000000
   3742 C         -11.5475  -11.1134   92.8790 ca      1  CNT         0.000000
   3743 C         -10.6629  -11.9647   93.5880 ca      1  CNT         0.000000
   3744 C          -9.7157  -12.7458   92.8790 ca      1  CNT         0.000000
   3745 C          -8.7115  -13.4522   93.5880 ca      1  CNT         0.000000
   3746 C          -7.6562  -14.0795   92.8790 ca      1  CNT         0.000000
   3747 C          -6.5560  -14.6243   93.5880 ca      1  CNT         0.000000
   3748 C          -5.4173  -15.0833   92.8790 ca      1  CNT         0.000000
   3749 C          -4.2467  -15.4537   93.5880 ca      1  CNT         0.000000
   3750 C          -3.0513  -15.7334   92.8790 ca      1  CNT         0.000000
   3751 C          -1.8380  -15.9208   93.5880 ca      1  CNT         0.000000
   3752 C          -0.6139  -16.0148   92.8790 ca      1  CNT         0.000000
   3753 C           0.6139  -16.0148   93.5880 ca      1  CNT         0.000000
   3754 C           1.8380  -15.9208   92.8790 ca      1  CNT         0.000000
   3755 C           3.0513  -15.7334   93.5880 ca      1  CNT         0.000000
   3756 C           4.2467  -15.4537   92.8790 ca      1  CNT         0.000000
   3757 C           5.4173  -15.0833   93.5880 ca      1  CNT         0.000000
   3758 C           6.5560  -14.6243   92.8790 ca      1  CNT         0.000000
   3759 C           7.6562  -14.0795   93.5880 ca      1  CNT         0.000000
   3760 C           8.7115  -13.4522   92.8790 ca      1  CNT         0.000000
   3761 C           9.7157  -12.7458   93.5880 ca      1  CNT         0.000000
   3762 C          10.6629  -11.9647   92.8790 ca      1  CNT         0.000000
   3763 C          11.5475  -11.1134   93.5880 ca      1  CNT         0.000000
   3764 C          12.3643  -10.1968   92.8790 ca      1  CNT         0.000000
   3765 C          13.1086   -9.2204   93.5880 ca      1  CNT         0.000000
   3766 C          13.7760   -8.1899   92.8790 ca      1  CNT         0.000000
   3767 C          14.3625   -7.1113   93.5880 ca      1  CNT         0.000000
   3768 C          14.8647   -5.9910   92.8790 ca      1  CNT         0.000000
   3769 C          15.2797   -4.8355   93.5880 ca      1  CNT         0.000000
   3770 C          15.6050   -3.6517   92.8790 ca      1  CNT         0.000000
   3771 C          15.8388   -2.4464   93.5880 ca      1  CNT         0.000000
   3772 C          15.9796   -1.2268   92.8790 ca      1  CNT         0.000000
   3773 C          15.9796    1.2268   99.9690 ca      1  CNT         0.000000
   3774 C          15.8388    2.4464   99.2600 ca      1  CNT         0.000000
   3775 C          15.6050    3.6517   99.9690 ca      1  CNT         0.000000
   3776 C          15.2797    4.8355   99.2600 ca      1  CNT         0.000000
   3777 C          14.8647    5.9910   99.9690 ca      1  CNT         0.000000
   3778 C          14.3625    7.1113   99.2600 ca      1  CNT         0.000000
   3779 C          13.7760    8.1899   99.9690 ca      1  CNT         0.000000
   3780 C          13.1086    9.2204   99.2600 ca      1  CNT         0.000000
   3781 C          12.3643   10.1968   99.9690 ca      1  CNT         0.000000
   3782 C          11.5475   11.1134   99.2600 ca      1  CNT         0.000000
   3783 C          10.6629   11.9647   99.9690 ca      1  CNT         0.000000
   3784 C           9.7157   12.7458   99.2600 ca      1  CNT         0.000000
   3785 C           8.7115   13.4522   99.9690 ca      1  CNT         0.000000
   3786 C           7.6562   14.0795   99.2600 ca      1  CNT         0.000000
   3787 C           6.5560   14.6243   99.9690 ca      1  CNT         0.000000
   3788 C           5.4173   15.0833   99.2600 ca      1  CNT         0.000000
   3789 C           4.2467   15.4537   99.9690 ca      1  CNT         0.000000
   3790 C           3.0513   15.7334   99.2600 ca      1  CNT         0.000000
   3791 C           1.8380   15.9208   99.9690 ca      1  CNT         0.000000
   3792 C           0.6139   16.0148   99.2600 ca      1  CNT         0.000000
   3793 C          -0.6139   16.0148   99.9690 ca      1  CNT         0.000000
   3794 C          -1.8380   15.9208   99.2600 ca      1  CNT         0.000000
   3795 C          -3.0513   15.7334   99.9690 ca      1  CNT         0.000000
   3796 C          -4.2467   15.4537   99.2600 ca      1  CNT         0.000000
   3797 C          -5.4173   15.0833   99.9690 ca      1  CNT         0.000000
   3798 C          -6.5560   14.6243   99.2600 ca      1  CNT         0.000000
   3799 C          -7.6562   14.0795   99.9690 ca      1  CNT         0.000000
   3800 C          -8.7115   13.4522   99.2600 ca      1  CNT         0.000000
   3801 C          -9.7157   12.7458   99.9690 ca      1  CNT         0.000000
   3802 C         -10.6629   11.9647   99.2600 ca      1  CNT         0.000000
   3803 C         -11.5475   11.1134   99.9690 ca      1  CNT         0.000000
   3804 C         -12.3643   10.1968   99.2600 ca      1  CNT         0.000000
   3805 C         -13.1086    9.2204   99.9690 ca      1  CNT         0.000000
   3806 C         -13.7760    8.1899   99.2600 ca      1  CNT         0.000000
   3807 C         -14.3625    7.1113   99.9690 ca      1  CNT         0.000000
   3808 C         -14.8647    5.9910   99.2600 ca      1  CNT         0.000000
   3809 C         -15.2797    4.8355   99.9690 ca      1  CNT         0.000000
   3810 C         -15.6050    3.6517   99.2600 ca      1  CNT         0.000000
   3811 C         -15.8388    2.4464   99.9690 ca      1  CNT         0.000000
   3812 C         -15.9796    1.2268   99.2600 ca      1  CNT         0.000000
   3813 C         -16.0266   -0.0000   99.9690 ca      1  CNT         0.000000
   3814 C         -15.9796   -1.2268   99.2600 ca      1  CNT         0.000000
   3815 C         -15.8388   -2.4464   99.9690 ca      1  CNT         0.000000
   3816 C         -15.6050   -3.6517   99.2600 ca      1  CNT         0.000000
   3817 C         -15.2797   -4.8355   99.9690 ca      1  CNT         0.000000
   3818 C         -14.8647   -5.9910   99.2600 ca      1  CNT         0.000000
   3819 C         -14.3625   -7.1113   99.9690 ca      1  CNT         0.000000
   3820 C         -13.7760   -8.1899   99.2600 ca      1  CNT         0.000000
   3821 C         -13.1086   -9.2204   99.9690 ca      1  CNT         0.000000
   3822 C         -12.3643  -10.1968   99.2600 ca      1  CNT         0.000000
   3823 C         -11.5475  -11.1134   99.9690 ca      1  CNT         0.000000
   3824 C         -10.6629  -11.9647   99.2600 ca      1  CNT         0.000000
   3825 C          -9.7157  -12.7458   99.9690 ca      1  CNT         0.000000
   3826 C          -8.7115  -13.4522   99.2600 ca      1  CNT         0.000000
   3827 C          -7.6562  -14.0795   99.9690 ca      1  CNT         0.000000
   3828 C          -6.5560  -14.6243   99.2600 ca      1  CNT         0.000000
   3829 C          -5.4173  -15.0833   99.9690 ca      1  CNT         0.000000
   3830 C          -4.2467  -15.4537   99.2600 ca      1  CNT         0.000000
   3831 C          -3.0513  -15.7334   99.9690 ca      1  CNT         0.000000
   3832 C          -1.8380  -15.9208   99.2600 ca      1  CNT         0.000000
   3833 C          -0.6139  -16.0148   99.9690 ca      1  CNT         0.000000
   3834 C           0.6139  -16.0148   99.2600 ca      1  CNT         0.000000
   3835 C           1.8380  -15.9208   99.9690 ca      1  CNT         0.000000
   3836 C           3.0513  -15.7334   99.2600 ca      1  CNT         0.000000
   3837 C           4.2467  -15.4537   99.9690 ca      1  CNT         0.000000
   3838 C           5.4173  -15.0833   99.2600 ca      1  CNT         0.000000
   3839 C           6.5560  -14.6243   99.9690 ca      1  CNT         0.000000
   3840 C           7.6562  -14.0795   99.2600 ca      1  CNT         0.000000
   3841 C           8.7115  -13.4522   99.9690 ca      1  CNT         0.000000
   3842 C           9.7157  -12.7458   99.2600 ca      1  CNT         0.000000
   3843 C          10.6629  -11.9647   99.9690 ca      1  CNT         0.000000
   3844 C          11.5475  -11.1134   99.2600 ca      1  CNT         0.000000
   3845 C          12.3643  -10.1968   99.9690 ca      1  CNT         0.000000
   3846 C          13.1086   -9.2204   99.2600 ca      1  CNT         0.000000
   3847 C          13.7760   -8.1899   99.9690 ca      1  CNT         0.000000
   3848 C          14.3625   -7.1113   99.2600 ca      1  CNT         0.000000
   3849 C          14.8647   -5.9910   99.9690 ca      1  CNT         0.000000
   3850 C          15.2797   -4.8355   99.2600 ca      1  CNT         0.000000
   3851 C          15.6050   -3.6517   99.9690 ca      1  CNT         0.000000
   3852 C          15.8388   -2.4464   99.2600 ca      1  CNT         0.000000
   3853 C          15.9796   -1.2268   99.9690 ca      1  CNT         0.000000
   3854 C          16.0266   -0.0000   99.2600 ca      1  CNT         0.000000
   3855 C          16.0266    0.0000   97.8420 ca      1  CNT         0.000000
   3856 C          15.9796    1.2268   97.1330 ca      1  CNT         0.000000
   3857 C          15.8388    2.4464   97.8420 ca      1  CNT         0.000000
   3858 C          15.6050    3.6517   97.1330 ca      1  CNT         0.000000
   3859 C          15.2797    4.8355   97.8420 ca      1  CNT         0.000000
   3860 C          14.8647    5.9910   97.1330 ca      1  CNT         0.000000
   3861 C          14.3625    7.1113   97.8420 ca      1  CNT         0.000000
   3862 C          13.7760    8.1899   97.1330 ca      1  CNT         0.000000
   3863 C          13.1086    9.2204   97.8420 ca      1  CNT         0.000000
   3864 C          12.3643   10.1968   97.1330 ca      1  CNT         0.000000
   3865 C          11.5475   11.1134   97.8420 ca      1  CNT         0.000000
   3866 C          10.6629   11.9647   97.1330 ca      1  CNT         0.000000
   3867 C           9.7157   12.7458   97.8420 ca      1  CNT         0.000000
   3868 C           8.7115   13.4522   97.1330 ca      1  CNT         0.000000
   3869 C           7.6562   14.0795   97.8420 ca      1  CNT         0.000000
   3870 C           6.5560   14.6243   97.1330 ca      1  CNT         0.000000
   3871 C           5.4173   15.0833   97.8420 ca      1  CNT         0.000000
   3872 C           4.2467   15.4537   97.1330 ca      1  CNT         0.000000
   3873 C           3.0513   15.7334   97.8420 ca      1  CNT         0.000000
   3874 C           1.8380   15.9208   97.1330 ca      1  CNT         0.000000
   3875 C           0.6139   16.0148   97.8420 ca      1  CNT         0.000000
   3876 C          -0.6139   16.0148   97.1330 ca      1  CNT         0.000000
   3877 C          -1.8380   15.9208   97.8420 ca      1  CNT         0.000000
   3878 C          -3.0513   15.7334   97.1330 ca      1  CNT         0.000000
   3879 C          -4.2467   15.4537   97.8420 ca      1  CNT         0.000000
   3880 C          -5.4173   15.0833   97.1330 ca      1  CNT         0.000000
   3881 C          -6.5560   14.6243   97.8420 ca      1  CNT         0.000000
   3882 C          -7.6562   14.0795   97.1330 ca      1  CNT         0.000000
   3883 C          -8.7115   13.4522   97.8420 ca      1  CNT         0.000000
   3884 C          -9.7157   12.7458   97.1330 ca      1  CNT         0.000000
   3885 C         -10.6629   11.9647   97.8420 ca      1  CNT         0.000000
   3886 C         -11.5475   11.1134   97.1330 ca      1  CNT         0.000000
   3887 C         -12.3643   10.1968   97.8420 ca      1  CNT         0.000000
   3888 C         -13.1086    9.2204   97.1330 ca      1  CNT         0.000000
   3889 C         -13.7760    8.1899   97.8420 ca      1  CNT         0.000000
   3890 C         -14.3625    7.1113   97.1330 ca      1  CNT         0.000000
   3891 C         -14.8647    5.9910   97.8420 ca      1  CNT         0.000000
   3892 C         -15.2797    4.8355   97.1330 ca      1  CNT         0.000000
   3893 C         -15.6050    3.6517   97.8420 ca      1  CNT         0.000000
   3894 C         -15.8388    2.4464   97.1330 ca      1  CNT         0.000000
   3895 C         -15.9796    1.2268   97.8420 ca      1  CNT         0.000000
   3896 C         -16.0266    0.0000   97.1330 ca      1  CNT         0.000000
   3897 C         -15.9796   -1.2268   97.8420 ca      1  CNT         0.000000
   3898 C         -15.8388   -2.4464   97.1330 ca      1  CNT         0.000000
   3899 C         -15.6050   -3.6517   97.8420 ca      1  CNT         0.000000
   3900 C         -15.2797   -4.8355   97.1330 ca      1  CNT         0.000000
   3901 C         -14.8647   -5.9910   97.8420 ca      1  CNT         0.000000
   3902 C         -14.3625   -7.1113   97.1330 ca      1  CNT         0.000000
   3903 C         -13.7760   -8.1899   97.8420 ca      1  CNT         0.000000
   3904 C         -13.1086   -9.2204   97.1330 ca      1  CNT         0.000000
   3905 C         -12.3643  -10.1968   97.8420 ca      1  CNT         0.000000
   3906 C         -11.5475  -11.1134   97.1330 ca      1  CNT         0.000000
   3907 C         -10.6629  -11.9647   97.8420 ca      1  CNT         0.000000
   3908 C          -9.7157  -12.7458   97.1330 ca      1  CNT         0.000000
   3909 C          -8.7115  -13.4522   97.8420 ca      1  CNT         0.000000
   3910 C          -7.6562  -14.0795   97.1330 ca      1  CNT         0.000000
   3911 C          -6.5560  -14.6243   97.8420 ca      1  CNT         0.000000
   3912 C          -5.4173  -15.0833   97.1330 ca      1  CNT         0.000000
   3913 C          -4.2467  -15.4537   97.8420 ca      1  CNT         0.000000
   3914 C          -3.0513  -15.7334   97.1330 ca      1  CNT         0.000000
   3915 C          -1.8380  -15.9208   97.8420 ca      1  CNT         0.000000
   3916 C          -0.6139  -16.0148   97.1330 ca      1  CNT         0.000000
   3917 C           0.6139  -16.0148   97.8420 ca      1  CNT         0.000000
   3918 C           1.8380  -15.9208   97.1330 ca      1  CNT         0.000000
   3919 C           3.0513  -15.7334   97.8420 ca      1  CNT         0.000000
   3920 C           4.2467  -15.4537   97.1330 ca      1  CNT         0.000000
   3921 C           5.4173  -15.0833   97.8420 ca      1  CNT         0.000000
   3922 C           6.5560  -14.6243   97.1330 ca      1  CNT         0.000000
   3923 C           7.6562  -14.0795   97.8420 ca      1  CNT         0.000000
   3924 C           8.7115  -13.4522   97.1330 ca      1  CNT         0.000000
   3925 C           9.7157  -12.7458   97.8420 ca      1  CNT         0.000000
   3926 C          10.6629  -11.9647   97.1330 ca      1  CNT         0.000000
   3927 C          11.5475  -11.1134   97.8420 ca      1  CNT         0.000000
   3928 C          12.3643  -10.1968   97.1330 ca      1  CNT         0.000000
   3929 C          13.1086   -9.2204   97.8420 ca      1  CNT         0.000000
   3930 C          13.7760   -8.1899   97.1330 ca      1  CNT         0.000000
   3931 C          14.3625   -7.1113   97.8420 ca      1  CNT         0.000000
   3932 C          14.8647   -5.9910   97.1330 ca      1  CNT         0.000000
   3933 C          15.2797   -4.8355   97.8420 ca      1  CNT         0.000000
   3934 C          15.6050   -3.6517   97.1330 ca      1  CNT         0.000000
   3935 C          15.8388   -2.4464   97.8420 ca      1  CNT         0.000000
   3936 C          15.9796   -1.2268   97.1330 ca      1  CNT         0.000000
   3937 C          15.9796    1.2268  104.2230 ca      1  CNT         0.000000
   3938 C          15.8388    2.4464  103.5140 ca      1  CNT         0.000000
   3939 C          15.6050    3.6517  104.2230 ca      1  CNT         0.000000
   3940 C          15.2797    4.8355  103.5140 ca      1  CNT         0.000000
   3941 C          14.8647    5.9910  104.2230 ca      1  CNT         0.000000
   3942 C          14.3625    7.1113  103.5140 ca      1  CNT         0.000000
   3943 C          13.7760    8.1899  104.2230 ca      1  CNT         0.000000
   3944 C          13.1086    9.2204  103.5140 ca      1  CNT         0.000000
   3945 C          12.3643   10.1968  104.2230 ca      1  CNT         0.000000
   3946 C          11.5475   11.1134  103.5140 ca      1  CNT         0.000000
   3947 C          10.6629   11.9647  104.2230 ca      1  CNT         0.000000
   3948 C           9.7157   12.7458  103.5140 ca      1  CNT         0.000000
   3949 C           8.7115   13.4522  104.2230 ca      1  CNT         0.000000
   3950 C           7.6562   14.0795  103.5140 ca      1  CNT         0.000000
   3951 C           6.5560   14.6243  104.2230 ca      1  CNT         0.000000
   3952 C           5.4173   15.0833  103.5140 ca      1  CNT         0.000000
   3953 C           4.2467   15.4537  104.2230 ca      1  CNT         0.000000
   3954 C           3.0513   15.7334  103.5140 ca      1  CNT         0.000000
   3955 C           1.8380   15.9208  104.2230 ca      1  CNT         0.000000
   3956 C           0.6139   16.0148  103.5140 ca      1  CNT         0.000000
   3957 C          -0.6139   16.0148  104.2230 ca      1  CNT         0.000000
   3958 C          -1.8380   15.9208  103.5140 ca      1  CNT         0.000000
   3959 C          -3.0513   15.7334  104.2230 ca      1  CNT         0.000000
   3960 C          -4.2467   15.4537  103.5140 ca      1  CNT         0.000000
   3961 C          -5.4173   15.0833  104.2230 ca      1  CNT         0.000000
   3962 C          -6.5560   14.6243  103.5140 ca      1  CNT         0.000000
   3963 C          -7.6562   14.0795  104.2230 ca      1  CNT         0.000000
   3964 C          -8.7115   13.4522  103.5140 ca      1  CNT         0.000000
   3965 C          -9.7157   12.7458  104.2230 ca      1  CNT         0.000000
   3966 C         -10.6629   11.9647  103.5140 ca      1  CNT         0.000000
   3967 C         -11.5475   11.1134  104.2230 ca      1  CNT         0.000000
   3968 C         -12.3643   10.1968  103.5140 ca      1  CNT         0.000000
   3969 C         -13.1086    9.2204  104.2230 ca      1  CNT         0.000000
   3970 C         -13.7760    8.1899  103.5140 ca      1  CNT         0.000000
   3971 C         -14.3625    7.1113  104.2230 ca      1  CNT         0.000000
   3972 C         -14.8647    5.9910  103.5140 ca      1  CNT         0.000000
   3973 C         -15.2797    4.8355  104.2230 ca      1  CNT         0.000000
   3974 C         -15.6050    3.6517  103.5140 ca      1  CNT         0.000000
   3975 C         -15.8388    2.4464  104.2230 ca      1  CNT         0.000000
   3976 C         -15.9796    1.2268  103.5140 ca      1  CNT         0.000000
   3977 C         -16.0266   -0.0000  104.2230 ca      1  CNT         0.000000
   3978 C         -15.9796   -1.2268  103.5140 ca      1  CNT         0.000000
   3979 C         -15.8388   -2.4464  104.2230 ca      1  CNT         0.000000
   3980 C         -15.6050   -3.6517  103.5140 ca      1  CNT         0.000000
   3981 C         -15.2797   -4.8355  104.2230 ca      1  CNT         0.000000
   3982 C         -14.8647   -5.9910  103.5140 ca      1  CNT         0.000000
   3983 C         -14.3625   -7.1113  104.2230 ca      1  CNT         0.000000
   3984 C         -13.7760   -8.1899  103.5140 ca      1  CNT         0.000000
   3985 C         -13.1086   -9.2204  104.2230 ca      1  CNT         0.000000
   3986 C         -12.3643  -10.1968  103.5140 ca      1  CNT         0.000000
   3987 C         -11.5475  -11.1134  104.2230 ca      1  CNT         0.000000
   3988 C         -10.6629  -11.9647  103.5140 ca      1  CNT         0.000000
   3989 C          -9.7157  -12.7458  104.2230 ca      1  CNT         0.000000
   3990 C          -8.7115  -13.4522  103.5140 ca      1  CNT         0.000000
   3991 C          -7.6562  -14.0795  104.2230 ca      1  CNT         0.000000
   3992 C          -6.5560  -14.6243  103.5140 ca      1  CNT         0.000000
   3993 C          -5.4173  -15.0833  104.2230 ca      1  CNT         0.000000
   3994 C          -4.2467  -15.4537  103.5140 ca      1  CNT         0.000000
   3995 C          -3.0513  -15.7334  104.2230 ca      1  CNT         0.000000
   3996 C          -1.8380  -15.9208  103.5140 ca      1  CNT         0.000000
   3997 C          -0.6139  -16.0148  104.2230 ca      1  CNT         0.000000
   3998 C           0.6139  -16.0148  103.5140 ca      1  CNT         0.000000
   3999 C           1.8380  -15.9208  104.2230 ca      1  CNT         0.000000
   4000 C           3.0513  -15.7334  103.5140 ca      1  CNT         0.000000
   4001 C           4.2467  -15.4537  104.2230 ca      1  CNT         0.000000
   4002 C           5.4173  -15.0833  103.5140 ca      1  CNT         0.000000
   4003 C           6.5560  -14.6243  104.2230 ca      1  CNT         0.000000
   4004 C           7.6562  -14.0795  103.5140 ca      1  CNT         0.000000
   4005 C           8.7115  -13.4522  104.2230 ca      1  CNT         0.000000
   4006 C           9.7157  -12.7458  103.5140 ca      1  CNT         0.000000
   4007 C          10.6629  -11.9647  104.2230 ca      1  CNT         0.000000
   4008 C          11.5475  -11.1134  103.5140 ca      1  CNT         0.000000
   4009 C          12.3643  -10.1968  104.2230 ca      1  CNT         0.000000
   4010 C          13.1086   -9.2204  103.5140 ca      1  CNT         0.000000
   4011 C          13.7760   -8.1899  104.2230 ca      1  CNT         0.000000
   4012 C          14.3625   -7.1113  103.5140 ca      1  CNT         0.000000
   4013 C          14.8647   -5.9910  104.2230 ca      1  CNT         0.000000
   4014 C          15.2797   -4.8355  103.5140 ca      1  CNT         0.000000
   4015 C          15.6050   -3.6517  104.2230 ca      1  CNT         0.000000
   4016 C          15.8388   -2.4464  103.5140 ca      1  CNT         0.000000
   4017 C          15.9796   -1.2268  104.2230 ca      1  CNT         0.000000
   4018 C          16.0266   -0.0000  103.5140 ca      1  CNT         0.000000
   4019 C          16.0266    0.0000  102.0960 ca      1  CNT         0.000000
   4020 C          15.9796    1.2268  101.3870 ca      1  CNT         0.000000
   4021 C          15.8388    2.4464  102.0960 ca      1  CNT         0.000000
   4022 C          15.6050    3.6517  101.3870 ca      1  CNT         0.000000
   4023 C          15.2797    4.8355  102.0960 ca      1  CNT         0.000000
   4024 C          14.8647    5.9910  101.3870 ca      1  CNT         0.000000
   4025 C          14.3625    7.1113  102.0960 ca      1  CNT         0.000000
   4026 C          13.7760    8.1899  101.3870 ca      1  CNT         0.000000
   4027 C          13.1086    9.2204  102.0960 ca      1  CNT         0.000000
   4028 C          12.3643   10.1968  101.3870 ca      1  CNT         0.000000
   4029 C          11.5475   11.1134  102.0960 ca      1  CNT         0.000000
   4030 C          10.6629   11.9647  101.3870 ca      1  CNT         0.000000
   4031 C           9.7157   12.7458  102.0960 ca      1  CNT         0.000000
   4032 C           8.7115   13.4522  101.3870 ca      1  CNT         0.000000
   4033 C           7.6562   14.0795  102.0960 ca      1  CNT         0.000000
   4034 C           6.5560   14.6243  101.3870 ca      1  CNT         0.000000
   4035 C           5.4173   15.0833  102.0960 ca      1  CNT         0.000000
   4036 C           4.2467   15.4537  101.3870 ca      1  CNT         0.000000
   4037 C           3.0513   15.7334  102.0960 ca      1  CNT         0.000000
   4038 C           1.8380   15.9208  101.3870 ca      1  CNT         0.000000
   4039 C           0.6139   16.0148  102.0960 ca      1  CNT         0.000000
   4040 C          -0.6139   16.0148  101.3870 ca      1  CNT         0.000000
   4041 C          -1.8380   15.9208  102.0960 ca      1  CNT         0.000000
   4042 C          -3.0513   15.7334  101.3870 ca      1  CNT         0.000000
   4043 C          -4.2467   15.4537  102.0960 ca      1  CNT         0.000000
   4044 C          -5.4173   15.0833  101.3870 ca      1  CNT         0.000000
   4045 C          -6.5560   14.6243  102.0960 ca      1  CNT         0.000000
   4046 C          -7.6562   14.0795  101.3870 ca      1  CNT         0.000000
   4047 C          -8.7115   13.4522  102.0960 ca      1  CNT         0.000000
   4048 C          -9.7157   12.7458  101.3870 ca      1  CNT         0.000000
   4049 C         -10.6629   11.9647  102.0960 ca      1  CNT         0.000000
   4050 C         -11.5475   11.1134  101.3870 ca      1  CNT         0.000000
   4051 C         -12.3643   10.1968  102.0960 ca      1  CNT         0.000000
   4052 C         -13.1086    9.2204  101.3870 ca      1  CNT         0.000000
   4053 C         -13.7760    8.1899  102.0960 ca      1  CNT         0.000000
   4054 C         -14.3625    7.1113  101.3870 ca      1  CNT         0.000000
   4055 C         -14.8647    5.9910  102.0960 ca      1  CNT         0.000000
   4056 C         -15.2797    4.8355  101.3870 ca      1  CNT         0.000000
   4057 C         -15.6050    3.6517  102.0960 ca      1  CNT         0.000000
   4058 C         -15.8388    2.4464  101.3870 ca      1  CNT         0.000000
   4059 C         -15.9796    1.2268  102.0960 ca      1  CNT         0.000000
   4060 C         -16.0266    0.0000  101.3870 ca      1  CNT         0.000000
   4061 C         -15.9796   -1.2268  102.0960 ca      1  CNT         0.000000
   4062 C         -15.8388   -2.4464  101.3870 ca      1  CNT         0.000000
   4063 C         -15.6050   -3.6517  102.0960 ca      1  CNT         0.000000
   4064 C         -15.2797   -4.8355  101.3870 ca      1  CNT         0.000000
   4065 C         -14.8647   -5.9910  102.0960 ca      1  CNT         0.000000
   4066 C         -14.3625   -7.1113  101.3870 ca      1  CNT         0.000000
   4067 C         -13.7760   -8.1899  102.0960 ca      1  CNT         0.000000
   4068 C         -13.1086   -9.2204  101.3870 ca      1  CNT         0.000000
   4069 C         -12.3643  -10.1968  102.0960 ca      1  CNT         0.000000
   4070 C         -11.5475  -11.1134  101.3870 ca      1  CNT         0.000000
   4071 C         -10.6629  -11.9647  102.0960 ca      1  CNT         0.000000
   4072 C          -9.7157  -12.7458  101.3870 ca      1  CNT         0.000000
   4073 C          -8.7115  -13.4522  102.0960 ca      1  CNT         0.000000
   4074 C          -7.6562  -14.0795  101.3870 ca      1  CNT         0.000000
   4075 C          -6.5560  -14.6243  102.0960 ca      1  CNT         0.000000
   4076 C          -5.4173  -15.0833  101.3870 ca      1  CNT         0.000000
   4077 C          -4.2467  -15.4537  102.0960 ca      1  CNT         0.000000
   4078 C          -3.0513  -15.7334  101.3870 ca      1  CNT         0.000000
   4079 C          -1.8380  -15.9208  102.0960 ca      1  CNT         0.000000
   4080 C          -0.6139  -16.0148  101.3870 ca      1  CNT         0.000000
   4081 C           0.6139  -16.0148  102.0960 ca      1  CNT         0.000000
   4082 C           1.8380  -15.9208  101.3870 ca      1  CNT         0.000000
   4083 C           3.0513  -15.7334  102.0960 ca      1  CNT         0.000000
   4084 C           4.2467  -15.4537  101.3870 ca      1  CNT         0.000000
   4085 C           5.4173  -15.0833  102.0960 ca      1  CNT         0.000000
   4086 C           6.5560  -14.6243  101.3870 ca      1  CNT         0.000000
   4087 C           7.6562  -14.0795  102.0960 ca      1  CNT         0.000000
   4088 C           8.7115  -13.4522  101.3870 ca      1  CNT         0.000000
   4089 C           9.7157  -12.7458  102.0960 ca      1  CNT         0.000000
   4090 C          10.6629  -11.9647  101.3870 ca      1  CNT         0.000000
   4091 C          11.5475  -11.1134  102.0960 ca      1  CNT         0.000000
   4092 C          12.3643  -10.1968  101.3870 ca      1  CNT         0.000000
   4093 C          13.1086   -9.2204  102.0960 ca      1  CNT         0.000000
   4094 C          13.7760   -8.1899  101.3870 ca      1  CNT         0.000000
   4095 C          14.3625   -7.1113  102.0960 ca      1  CNT         0.000000
   4096 C          14.8647   -5.9910  101.3870 ca      1  CNT         0.000000
   4097 C          15.2797   -4.8355  102.0960 ca      1  CNT         0.000000
   4098 C          15.6050   -3.6517  101.3870 ca      1  CNT         0.000000
   4099 C          15.8388   -2.4464  102.0960 ca      1  CNT         0.000000
   4100 C          15.9796   -1.2268  101.3870 ca      1  CNT         0.000000
   4101 C          15.9796    1.2268  108.4770 ca      1  CNT         0.000000
   4102 C          15.8388    2.4464  107.7680 ca      1  CNT         0.000000
   4103 C          15.6050    3.6517  108.4770 ca      1  CNT         0.000000
   4104 C          15.2797    4.8355  107.7680 ca      1  CNT         0.000000
   4105 C          14.8647    5.9910  108.4770 ca      1  CNT         0.000000
   4106 C          14.3625    7.1113  107.7680 ca      1  CNT         0.000000
   4107 C          13.7760    8.1899  108.4770 ca      1  CNT         0.000000
   4108 C          13.1086    9.2204  107.7680 ca      1  CNT         0.000000
   4109 C          12.3643   10.1968  108.4770 ca      1  CNT         0.000000
   4110 C          11.5475   11.1134  107.7680 ca      1  CNT         0.000000
   4111 C          10.6629   11.9647  108.4770 ca      1  CNT         0.000000
   4112 C           9.7157   12.7458  107.7680 ca      1  CNT         0.000000
   4113 C           8.7115   13.4522  108.4770 ca      1  CNT         0.000000
   4114 C           7.6562   14.0795  107.7680 ca      1  CNT         0.000000
   4115 C           6.5560   14.6243  108.4770 ca      1  CNT         0.000000
   4116 C           5.4173   15.0833  107.7680 ca      1  CNT         0.000000
   4117 C           4.2467   15.4537  108.4770 ca      1  CNT         0.000000
   4118 C           3.0513   15.7334  107.7680 ca      1  CNT         0.000000
   4119 C           1.8380   15.9208  108.4770 ca      1  CNT         0.000000
   4120 C           0.6139   16.0148  107.7680 ca      1  CNT         0.000000
   4121 C          -0.6139   16.0148  108.4770 ca      1  CNT         0.000000
   4122 C          -1.8380   15.9208  107.7680 ca      1  CNT         0.000000
   4123 C          -3.0513   15.7334  108.4770 ca      1  CNT         0.000000
   4124 C          -4.2467   15.4537  107.7680 ca      1  CNT         0.000000
   4125 C          -5.4173   15.0833  108.4770 ca      1  CNT         0.000000
   4126 C          -6.5560   14.6243  107.7680 ca      1  CNT         0.000000
   4127 C          -7.6562   14.0795  108.4770 ca      1  CNT         0.000000
   4128 C          -8.7115   13.4522  107.7680 ca      1  CNT         0.000000
   4129 C          -9.7157   12.7458  108.4770 ca      1  CNT         0.000000
   4130 C         -10.6629   11.9647  107.7680 ca      1  CNT         0.000000
   4131 C         -11.5475   11.1134  108.4770 ca      1  CNT         0.000000
   4132 C         -12.3643   10.1968  107.7680 ca      1  CNT         0.000000
   4133 C         -13.1086    9.2204  108.4770 ca      1  CNT         0.000000
   4134 C         -13.7760    8.1899  107.7680 ca      1  CNT         0.000000
   4135 C         -14.3625    7.1113  108.4770 ca      1  CNT         0.000000
   4136 C         -14.8647    5.9910  107.7680 ca      1  CNT         0.000000
   4137 C         -15.2797    4.8355  108.4770 ca      1  CNT         0.000000
   4138 C         -15.6050    3.6517  107.7680 ca      1  CNT         0.000000
   4139 C         -15.8388    2.4464  108.4770 ca      1  CNT         0.000000
   4140 C         -15.9796    1.2268  107.7680 ca      1  CNT         0.000000
   4141 C         -16.0266   -0.0000  108.4770 ca      1  CNT         0.000000
   4142 C         -15.9796   -1.2268  107.7680 ca      1  CNT         0.000000
   4143 C         -15.8388   -2.4464  108.4770 ca      1  CNT         0.000000
   4144 C         -15.6050   -3.6517  107.7680 ca      1  CNT         0.000000
   4145 C         -15.2797   -4.8355  108.4770 ca      1  CNT         0.000000
   4146 C         -14.8647   -5.9910  107.7680 ca      1  CNT         0.000000
   4147 C         -14.3625   -7.1113  108.4770 ca      1  CNT         0.000000
   4148 C         -13.7760   -8.1899  107.7680 ca      1  CNT         0.000000
   4149 C         -13.1086   -9.2204  108.4770 ca      1  CNT         0.000000
   4150 C         -12.3643  -10.1968  107.7680 ca      1  CNT         0.000000
   4151 C         -11.5475  -11.1134  108.4770 ca      1  CNT         0.000000
   4152 C         -10.6629  -11.9647  107.7680 ca      1  CNT         0.000000
   4153 C          -9.7157  -12.7458  108.4770 ca      1  CNT         0.000000
   4154 C          -8.7115  -13.4522  107.7680 ca      1  CNT         0.000000
   4155 C          -7.6562  -14.0795  108.4770 ca      1  CNT         0.000000
   4156 C          -6.5560  -14.6243  107.7680 ca      1  CNT         0.000000
   4157 C          -5.4173  -15.0833  108.4770 ca      1  CNT         0.000000
   4158 C          -4.2467  -15.4537  107.7680 ca      1  CNT         0.000000
   4159 C          -3.0513  -15.7334  108.4770 ca      1  CNT         0.000000
   4160 C          -1.8380  -15.9208  107.7680 ca      1  CNT         0.000000
   4161 C          -0.6139  -16.0148  108.4770 ca      1  CNT         0.000000
   4162 C           0.6139  -16.0148  107.7680 ca      1  CNT         0.000000
   4163 C           1.8380  -15.9208  108.4770 ca      1  CNT         0.000000
   4164 C           3.0513  -15.7334  107.7680 ca      1  CNT         0.000000
   4165 C           4.2467  -15.4537  108.4770 ca      1  CNT         0.000000
   4166 C           5.4173  -15.0833  107.7680 ca      1  CNT         0.000000
   4167 C           6.5560  -14.6243  108.4770 ca      1  CNT         0.000000
   4168 C           7.6562  -14.0795  107.7680 ca      1  CNT         0.000000
   4169 C           8.7115  -13.4522  108.4770 ca      1  CNT         0.000000
   4170 C           9.7157  -12.7458  107.7680 ca      1  CNT         0.000000
   4171 C          10.6629  -11.9647  108.4770 ca      1  CNT         0.000000
   4172 C          11.5475  -11.1134  107.7680 ca      1  CNT         0.000000
   4173 C          12.3643  -10.1968  108.4770 ca      1  CNT         0.000000
   4174 C          13.1086   -9.2204  107.7680 ca      1  CNT         0.000000
   4175 C          13.7760   -8.1899  108.4770 ca      1  CNT         0.000000
   4176 C          14.3625   -7.1113  107.7680 ca      1  CNT         0.000000
   4177 C          14.8647   -5.9910  108.4770 ca      1  CNT         0.000000
   4178 C          15.2797   -4.8355  107.7680 ca      1  CNT         0.000000
   4179 C          15.6050   -3.6517  108.4770 ca      1  CNT         0.000000
   4180 C          15.8388   -2.4464  107.7680 ca      1  CNT         0.000000
   4181 C          15.9796   -1.2268  108.4770 ca      1  CNT         0.000000
   4182 C          16.0266   -0.0000  107.7680 ca      1  CNT         0.000000
   4183 C          16.0266    0.0000  106.3500 ca      1  CNT         0.000000
   4184 C          15.9796    1.2268  105.6410 ca      1  CNT         0.000000
   4185 C          15.8388    2.4464  106.3500 ca      1  CNT         0.000000
   4186 C          15.6050    3.6517  105.6410 ca      1  CNT         0.000000
   4187 C          15.2797    4.8355  106.3500 ca      1  CNT         0.000000
   4188 C          14.8647    5.9910  105.6410 ca      1  CNT         0.000000
   4189 C          14.3625    7.1113  106.3500 ca      1  CNT         0.000000
   4190 C          13.7760    8.1899  105.6410 ca      1  CNT         0.000000
   4191 C          13.1086    9.2204  106.3500 ca      1  CNT         0.000000
   4192 C          12.3643   10.1968  105.6410 ca      1  CNT         0.000000
   4193 C          11.5475   11.1134  106.3500 ca      1  CNT         0.000000
   4194 C          10.6629   11.9647  105.6410 ca      1  CNT         0.000000
   4195 C           9.7157   12.7458  106.3500 ca      1  CNT         0.000000
   4196 C           8.7115   13.4522  105.6410 ca      1  CNT         0.000000
   4197 C           7.6562   14.0795  106.3500 ca      1  CNT         0.000000
   4198 C           6.5560   14.6243  105.6410 ca      1  CNT         0.000000
   4199 C           5.4173   15.0833  106.3500 ca      1  CNT         0.000000
   4200 C           4.2467   15.4537  105.6410 ca      1  CNT         0.000000
   4201 C           3.0513   15.7334  106.3500 ca      1  CNT         0.000000
   4202 C           1.8380   15.9208  105.6410 ca      1  CNT         0.000000
   4203 C           0.6139   16.0148  106.3500 ca      1  CNT         0.000000
   4204 C          -0.6139   16.0148  105.6410 ca      1  CNT         0.000000
   4205 C          -1.8380   15.9208  106.3500 ca      1  CNT         0.000000
   4206 C          -3.0513   15.7334  105.6410 ca      1  CNT         0.000000
   4207 C          -4.2467   15.4537  106.3500 ca      1  CNT         0.000000
   4208 C          -5.4173   15.0833  105.6410 ca      1  CNT         0.000000
   4209 C          -6.5560   14.6243  106.3500 ca      1  CNT         0.000000
   4210 C          -7.6562   14.0795  105.6410 ca      1  CNT         0.000000
   4211 C          -8.7115   13.4522  106.3500 ca      1  CNT         0.000000
   4212 C          -9.7157   12.7458  105.6410 ca      1  CNT         0.000000
   4213 C         -10.6629   11.9647  106.3500 ca      1  CNT         0.000000
   4214 C         -11.5475   11.1134  105.6410 ca      1  CNT         0.000000
   4215 C         -12.3643   10.1968  106.3500 ca      1  CNT         0.000000
   4216 C         -13.1086    9.2204  105.6410 ca      1  CNT         0.000000
   4217 C         -13.7760    8.1899  106.3500 ca      1  CNT         0.000000
   4218 C         -14.3625    7.1113  105.6410 ca      1  CNT         0.000000
   4219 C         -14.8647    5.9910  106.3500 ca      1  CNT         0.000000
   4220 C         -15.2797    4.8355  105.6410 ca      1  CNT         0.000000
   4221 C         -15.6050    3.6517  106.3500 ca      1  CNT         0.000000
   4222 C         -15.8388    2.4464  105.6410 ca      1  CNT         0.000000
   4223 C         -15.9796    1.2268  106.3500 ca      1  CNT         0.000000
   4224 C         -16.0266    0.0000  105.6410 ca      1  CNT         0.000000
   4225 C         -15.9796   -1.2268  106.3500 ca      1  CNT         0.000000
   4226 C         -15.8388   -2.4464  105.6410 ca      1  CNT         0.000000
   4227 C         -15.6050   -3.6517  106.3500 ca      1  CNT         0.000000
   4228 C         -15.2797   -4.8355  105.6410 ca      1  CNT         0.000000
   4229 C         -14.8647   -5.9910  106.3500 ca      1  CNT         0.000000
   4230 C         -14.3625   -7.1113  105.6410 ca      1  CNT         0.000000
   4231 C         -13.7760   -8.1899  106.3500 ca      1  CNT         0.000000
   4232 C         -13.1086   -9.2204  105.6410 ca      1  CNT         0.000000
   4233 C         -12.3643  -10.1968  106.3500 ca      1  CNT         0.000000
   4234 C         -11.5475  -11.1134  105.6410 ca      1  CNT         0.000000
   4235 C         -10.6629  -11.9647  106.3500 ca      1  CNT         0.000000
   4236 C          -9.7157  -12.7458  105.6410 ca      1  CNT         0.000000
   4237 C          -8.7115  -13.4522  106.3500 ca      1  CNT         0.000000
   4238 C          -7.6562  -14.0795  105.6410 ca      1  CNT         0.000000
   4239 C          -6.5560  -14.6243  106.3500 ca      1  CNT         0.000000
   4240 C          -5.4173  -15.0833  105.6410 ca      1  CNT         0.000000
   4241 C          -4.2467  -15.4537  106.3500 ca      1  CNT         0.000000
   4242 C          -3.0513  -15.7334  105.6410 ca      1  CNT         0.000000
   4243 C          -1.8380  -15.9208  106.3500 ca      1  CNT         0.000000
   4244 C          -0.6139  -16.0148  105.6410 ca      1  CNT         0.000000
   4245 C           0.6139  -16.0148  106.3500 ca      1  CNT         0.000000
   4246 C           1.8380  -15.9208  105.6410 ca      1  CNT         0.000000
   4247 C           3.0513  -15.7334  106.3500 ca      1  CNT         0.000000
   4248 C           4.2467  -15.4537  105.6410 ca      1  CNT         0.000000
   4249 C           5.4173  -15.0833  106.3500 ca      1  CNT         0.000000
   4250 C           6.5560  -14.6243  105.6410 ca      1  CNT         0.000000
   4251 C           7.6562  -14.0795  106.3500 ca      1  CNT         0.000000
   4252 C           8.7115  -13.4522  105.6410 ca      1  CNT         0.000000
   4253 C           9.7157  -12.7458  106.3500 ca      1  CNT         0.000000
   4254 C          10.6629  -11.9647  105.6410 ca      1  CNT         0.000000
   4255 C          11.5475  -11.1134  106.3500 ca      1  CNT         0.000000
   4256 C          12.3643  -10.1968  105.6410 ca      1  CNT         0.000000
   4257 C          13.1086   -9.2204  106.3500 ca      1  CNT         0.000000
   4258 C          13.7760   -8.1899  105.6410 ca      1  CNT         0.000000
   4259 C          14.3625   -7.1113  106.3500 ca      1  CNT         0.000000
   4260 C          14.8647   -5.9910  105.6410 ca      1  CNT         0.000000
   4261 C          15.2797   -4.8355  106.3500 ca      1  CNT         0.000000
   4262 C          15.6050   -3.6517  105.6410 ca      1  CNT         0.000000
   4263 C          15.8388   -2.4464  106.3500 ca      1  CNT         0.000000
   4264 C          15.9796   -1.2268  105.6410 ca      1  CNT         0.000000
   4265 C          15.9796    1.2268  112.7310 ca      1  CNT         0.000000
   4266 C          15.8388    2.4464  112.0220 ca      1  CNT         0.000000
   4267 C          15.6050    3.6517  112.7310 ca      1  CNT         0.000000
   4268 C          15.2797    4.8355  112.0220 ca      1  CNT         0.000000
   4269 C          14.8647    5.9910  112.7310 ca      1  CNT         0.000000
   4270 C          14.3625    7.1113  112.0220 ca      1  CNT         0.000000
   4271 C          13.7760    8.1899  112.7310 ca      1  CNT         0.000000
   4272 C          13.1086    9.2204  112.0220 ca      1  CNT         0.000000
   4273 C          12.3643   10.1968  112.7310 ca      1  CNT         0.000000
   4274 C          11.5475   11.1134  112.0220 ca      1  CNT         0.000000
   4275 C          10.6629   11.9647  112.7310 ca      1  CNT         0.000000
   4276 C           9.7157   12.7458  112.0220 ca      1  CNT         0.000000
   4277 C           8.7115   13.4522  112.7310 ca      1  CNT         0.000000
   4278 C           7.6562   14.0795  112.0220 ca      1  CNT         0.000000
   4279 C           6.5560   14.6243  112.7310 ca      1  CNT         0.000000
   4280 C           5.4173   15.0833  112.0220 ca      1  CNT         0.000000
   4281 C           4.2467   15.4537  112.7310 ca      1  CNT         0.000000
   4282 C           3.0513   15.7334  112.0220 ca      1  CNT         0.000000
   4283 C           1.8380   15.9208  112.7310 ca      1  CNT         0.000000
   4284 C           0.6139   16.0148  112.0220 ca      1  CNT         0.000000
   4285 C          -0.6139   16.0148  112.7310 ca      1  CNT         0.000000
   4286 C          -1.8380   15.9208  112.0220 ca      1  CNT         0.000000
   4287 C          -3.0513   15.7334  112.7310 ca      1  CNT         0.000000
   4288 C          -4.2467   15.4537  112.0220 ca      1  CNT         0.000000
   4289 C          -5.4173   15.0833  112.7310 ca      1  CNT         0.000000
   4290 C          -6.5560   14.6243  112.0220 ca      1  CNT         0.000000
   4291 C          -7.6562   14.0795  112.7310 ca      1  CNT         0.000000
   4292 C          -8.7115   13.4522  112.0220 ca      1  CNT         0.000000
   4293 C          -9.7157   12.7458  112.7310 ca      1  CNT         0.000000
   4294 C         -10.6629   11.9647  112.0220 ca      1  CNT         0.000000
   4295 C         -11.5475   11.1134  112.7310 ca      1  CNT         0.000000
   4296 C         -12.3643   10.1968  112.0220 ca      1  CNT         0.000000
   4297 C         -13.1086    9.2204  112.7310 ca      1  CNT         0.000000
   4298 C         -13.7760    8.1899  112.0220 ca      1  CNT         0.000000
   4299 C         -14.3625    7.1113  112.7310 ca      1  CNT         0.000000
   4300 C         -14.8647    5.9910  112.0220 ca      1  CNT         0.000000
   4301 C         -15.2797    4.8355  112.7310 ca      1  CNT         0.000000
   4302 C         -15.6050    3.6517  112.0220 ca      1  CNT         0.000000
   4303 C         -15.8388    2.4464  112.7310 ca      1  CNT         0.000000
   4304 C         -15.9796    1.2268  112.0220 ca      1  CNT         0.000000
   4305 C         -16.0266   -0.0000  112.7310 ca      1  CNT         0.000000
   4306 C         -15.9796   -1.2268  112.0220 ca      1  CNT         0.000000
   4307 C         -15.8388   -2.4464  112.7310 ca      1  CNT         0.000000
   4308 C         -15.6050   -3.6517  112.0220 ca      1  CNT         0.000000
   4309 C         -15.2797   -4.8355  112.7310 ca      1  CNT         0.000000
   4310 C         -14.8647   -5.9910  112.0220 ca      1  CNT         0.000000
   4311 C         -14.3625   -7.1113  112.7310 ca      1  CNT         0.000000
   4312 C         -13.7760   -8.1899  112.0220 ca      1  CNT         0.000000
   4313 C         -13.1086   -9.2204  112.7310 ca      1  CNT         0.000000
   4314 C         -12.3643  -10.1968  112.0220 ca      1  CNT         0.000000
   4315 C         -11.5475  -11.1134  112.7310 ca      1  CNT         0.000000
   4316 C         -10.6629  -11.9647  112.0220 ca      1  CNT         0.000000
   4317 C          -9.7157  -12.7458  112.7310 ca      1  CNT         0.000000
   4318 C          -8.7115  -13.4522  112.0220 ca      1  CNT         0.000000
   4319 C          -7.6562  -14.0795  112.7310 ca      1  CNT         0.000000
   4320 C          -6.5560  -14.6243  112.0220 ca      1  CNT         0.000000
   4321 C          -5.4173  -15.0833  112.7310 ca      1  CNT         0.000000
   4322 C          -4.2467  -15.4537  112.0220 ca      1  CNT         0.000000
   4323 C          -3.0513  -15.7334  112.7310 ca      1  CNT         0.000000
   4324 C          -1.8380  -15.9208  112.0220 ca      1  CNT         0.000000
   4325 C          -0.6139  -16.0148  112.7310 ca      1  CNT         0.000000
   4326 C           0.6139  -16.0148  112.0220 ca      1  CNT         0.000000
   4327 C           1.8380  -15.9208  112.7310 ca      1  CNT         0.000000
   4328 C           3.0513  -15.7334  112.0220 ca      1  CNT         0.000000
   4329 C           4.2467  -15.4537  112.7310 ca      1  CNT         0.000000
   4330 C           5.4173  -15.0833  112.0220 ca      1  CNT         0.000000
   4331 C           6.5560  -14.6243  112.7310 ca      1  CNT         0.000000
   4332 C           7.6562  -14.0795  112.0220 ca      1  CNT         0.000000
   4333 C           8.7115  -13.4522  112.7310 ca      1  CNT         0.000000
   4334 C           9.7157  -12.7458  112.0220 ca      1  CNT         0.000000
   4335 C          10.6629  -11.9647  112.7310 ca      1  CNT         0.000000
   4336 C          11.5475  -11.1134  112.0220 ca      1  CNT         0.000000
   4337 C          12.3643  -10.1968  112.7310 ca      1  CNT         0.000000
   4338 C          13.1086   -9.2204  112.0220 ca      1  CNT         0.000000
   4339 C          13.7760   -8.1899  112.7310 ca      1  CNT         0.000000
   4340 C          14.3625   -7.1113  112.0220 ca      1  CNT         0.000000
   4341 C          14.8647   -5.9910  112.7310 ca      1  CNT         0.000000
   4342 C          15.2797   -4.8355  112.0220 ca      1  CNT         0.000000
   4343 C          15.6050   -3.6517  112.7310 ca      1  CNT         0.000000
   4344 C          15.8388   -2.4464  112.0220 ca      1  CNT         0.000000
   4345 C          15.9796   -1.2268  112.7310 ca      1  CNT         0.000000
   4346 C          16.0266   -0.0000  112.0220 ca      1  CNT         0.000000
   4347 C          16.0266    0.0000  110.6040 ca      1  CNT         0.000000
   4348 C          15.9796    1.2268  109.8950 ca      1  CNT         0.000000
   4349 C          15.8388    2.4464  110.6040 ca      1  CNT         0.000000
   4350 C          15.6050    3.6517  109.8950 ca      1  CNT         0.000000
   4351 C          15.2797    4.8355  110.6040 ca      1  CNT         0.000000
   4352 C          14.8647    5.9910  109.8950 ca      1  CNT         0.000000
   4353 C          14.3625    7.1113  110.6040 ca      1  CNT         0.000000
   4354 C          13.7760    8.1899  109.8950 ca      1  CNT         0.000000
   4355 C          13.1086    9.2204  110.6040 ca      1  CNT         0.000000
   4356 C          12.3643   10.1968  109.8950 ca      1  CNT         0.000000
   4357 C          11.5475   11.1134  110.6040 ca      1  CNT         0.000000
   4358 C          10.6629   11.9647  109.8950 ca      1  CNT         0.000000
   4359 C           9.7157   12.7458  110.6040 ca      1  CNT         0.000000
   4360 C           8.7115   13.4522  109.8950 ca      1  CNT         0.000000
   4361 C           7.6562   14.0795  110.6040 ca      1  CNT         0.000000
   4362 C           6.5560   14.6243  109.8950 ca      1  CNT         0.000000
   4363 C           5.4173   15.0833  110.6040 ca      1  CNT         0.000000
   4364 C           4.2467   15.4537  109.8950 ca      1  CNT         0.000000
   4365 C           3.0513   15.7334  110.6040 ca      1  CNT         0.000000
   4366 C           1.8380   15.9208  109.8950 ca      1  CNT         0.000000
   4367 C           0.6139   16.0148  110.6040 ca      1  CNT         0.000000
   4368 C          -0.6139   16.0148  109.8950 ca      1  CNT         0.000000
   4369 C          -1.8380   15.9208  110.6040 ca      1  CNT         0.000000
   4370 C          -3.0513   15.7334  109.8950 ca      1  CNT         0.000000
   4371 C          -4.2467   15.4537  110.6040 ca      1  CNT         0.000000
   4372 C          -5.4173   15.0833  109.8950 ca      1  CNT         0.000000
   4373 C          -6.5560   14.6243  110.6040 ca      1  CNT         0.000000
   4374 C          -7.6562   14.0795  109.8950 ca      1  CNT         0.000000
   4375 C          -8.7115   13.4522  110.6040 ca      1  CNT         0.000000
   4376 C          -9.7157   12.7458  109.8950 ca      1  CNT         0.000000
   4377 C         -10.6629   11.9647  110.6040 ca      1  CNT         0.000000
   4378 C         -11.5475   11.1134  109.8950 ca      1  CNT         0.000000
   4379 C         -12.3643   10.1968  110.6040 ca      1  CNT         0.000000
   4380 C         -13.1086    9.2204  109.8950 ca      1  CNT         0.000000
   4381 C         -13.7760    8.1899  110.6040 ca      1  CNT         0.000000
   4382 C         -14.3625    7.1113  109.8950 ca      1  CNT         0.000000
   4383 C         -14.8647    5.9910  110.6040 ca      1  CNT         0.000000
   4384 C         -15.2797    4.8355  109.8950 ca      1  CNT         0.000000
   4385 C         -15.6050    3.6517  110.6040 ca      1  CNT         0.000000
   4386 C         -15.8388    2.4464  109.8950 ca      1  CNT         0.000000
   4387 C         -15.9796    1.2268  110.6040 ca      1  CNT         0.000000
   4388 C         -16.0266    0.0000  109.8950 ca      1  CNT         0.000000
   4389 C         -15.9796   -1.2268  110.6040 ca      1  CNT         0.000000
   4390 C         -15.8388   -2.4464  109.8950 ca      1  CNT         0.000000
   4391 C         -15.6050   -3.6517  110.6040 ca      1  CNT         0.000000
   4392 C         -15.2797   -4.8355  109.8950 ca      1  CNT         0.000000
   4393 C         -14.8647   -5.9910  110.6040 ca      1  CNT         0.000000
   4394 C         -14.3625   -7.1113  109.8950 ca      1  CNT         0.000000
   4395 C         -13.7760   -8.1899  110.6040 ca      1  CNT         0.000000
   4396 C         -13.1086   -9.2204  109.8950 ca      1  CNT         0.000000
   4397 C         -12.3643  -10.1968  110.6040 ca      1  CNT         0.000000
   4398 C         -11.5475  -11.1134  109.8950 ca      1  CNT         0.000000
   4399 C         -10.6629  -11.9647  110.6040 ca      1  CNT         0.000000
   4400 C          -9.7157  -12.7458  109.8950 ca      1  CNT         0.000000
   4401 C          -8.7115  -13.4522  110.6040 ca      1  CNT         0.000000
   4402 C          -7.6562  -14.0795  109.8950 ca      1  CNT         0.000000
   4403 C          -6.5560  -14.6243  110.6040 ca      1  CNT         0.000000
   4404 C          -5.4173  -15.0833  109.8950 ca      1  CNT         0.000000
   4405 C          -4.2467  -15.4537  110.6040 ca      1  CNT         0.000000
   4406 C          -3.0513  -15.7334  109.8950 ca      1  CNT         0.000000
   4407 C          -1.8380  -15.9208  110.6040 ca      1  CNT         0.000000
   4408 C          -0.6139  -16.0148  109.8950 ca      1  CNT         0.000000
   4409 C           0.6139  -16.0148  110.6040 ca      1  CNT         0.000000
   4410 C           1.8380  -15.9208  109.8950 ca      1  CNT         0.000000
   4411 C           3.0513  -15.7334  110.6040 ca      1  CNT         0.000000
   4412 C           4.2467  -15.4537  109.8950 ca      1  CNT         0.000000
   4413 C           5.4173  -15.0833  110.6040 ca      1  CNT         0.000000
   4414 C           6.5560  -14.6243  109.8950 ca      1  CNT         0.000000
   4415 C           7.6562  -14.0795  110.6040 ca      1  CNT         0.000000
   4416 C           8.7115  -13.4522  109.8950 ca      1  CNT         0.000000
   4417 C           9.7157  -12.7458  110.6040 ca      1  CNT         0.000000
   4418 C          10.6629  -11.9647  109.8950 ca      1  CNT         0.000000
   4419 C          11.5475  -11.1134  110.6040 ca      1  CNT         0.000000
   4420 C          12.3643  -10.1968  109.8950 ca      1  CNT         0.000000
   4421 C          13.1086   -9.2204  110.6040 ca      1  CNT         0.000000
   4422 C          13.7760   -8.1899  109.8950 ca      1  CNT         0.000000
   4423 C          14.3625   -7.1113  110.6040 ca      1  CNT         0.000000
   4424 C          14.8647   -5.9910  109.8950 ca      1  CNT         0.000000
   4425 C          15.2797   -4.8355  110.6040 ca      1  CNT         0.000000
   4426 C          15.6050   -3.6517  109.8950 ca      1  CNT         0.000000
   4427 C          15.8388   -2.4464  110.6040 ca      1  CNT         0.000000
   4428 C          15.9796   -1.2268  109.8950 ca      1  CNT         0.000000
   4429 C          15.9796    1.2268  116.9850 ca      1  CNT         0.000000
   4430 C          15.8388    2.4464  116.2760 ca      1  CNT         0.000000
   4431 C          15.6050    3.6517  116.9850 ca      1  CNT         0.000000
   4432 C          15.2797    4.8355  116.2760 ca      1  CNT         0.000000
   4433 C          14.8647    5.9910  116.9850 ca      1  CNT         0.000000
   4434 C          14.3625    7.1113  116.2760 ca      1  CNT         0.000000
   4435 C          13.7760    8.1899  116.9850 ca      1  CNT         0.000000
   4436 C          13.1086    9.2204  116.2760 ca      1  CNT         0.000000
   4437 C          12.3643   10.1968  116.9850 ca      1  CNT         0.000000
   4438 C          11.5475   11.1134  116.2760 ca      1  CNT         0.000000
   4439 C          10.6629   11.9647  116.9850 ca      1  CNT         0.000000
   4440 C           9.7157   12.7458  116.2760 ca      1  CNT         0.000000
   4441 C           8.7115   13.4522  116.9850 ca      1  CNT         0.000000
   4442 C           7.6562   14.0795  116.2760 ca      1  CNT         0.000000
   4443 C           6.5560   14.6243  116.9850 ca      1  CNT         0.000000
   4444 C           5.4173   15.0833  116.2760 ca      1  CNT         0.000000
   4445 C           4.2467   15.4537  116.9850 ca      1  CNT         0.000000
   4446 C           3.0513   15.7334  116.2760 ca      1  CNT         0.000000
   4447 C           1.8380   15.9208  116.9850 ca      1  CNT         0.000000
   4448 C           0.6139   16.0148  116.2760 ca      1  CNT         0.000000
   4449 C          -0.6139   16.0148  116.9850 ca      1  CNT         0.000000
   4450 C          -1.8380   15.9208  116.2760 ca      1  CNT         0.000000
   4451 C          -3.0513   15.7334  116.9850 ca      1  CNT         0.000000
   4452 C          -4.2467   15.4537  116.2760 ca      1  CNT         0.000000
   4453 C          -5.4173   15.0833  116.9850 ca      1  CNT         0.000000
   4454 C          -6.5560   14.6243  116.2760 ca      1  CNT         0.000000
   4455 C          -7.6562   14.0795  116.9850 ca      1  CNT         0.000000
   4456 C          -8.7115   13.4522  116.2760 ca      1  CNT         0.000000
   4457 C          -9.7157   12.7458  116.9850 ca      1  CNT         0.000000
   4458 C         -10.6629   11.9647  116.2760 ca      1  CNT         0.000000
   4459 C         -11.5475   11.1134  116.9850 ca      1  CNT         0.000000
   4460 C         -12.3643   10.1968  116.2760 ca      1  CNT         0.000000
   4461 C         -13.1086    9.2204  116.9850 ca      1  CNT         0.000000
   4462 C         -13.7760    8.1899  116.2760 ca      1  CNT         0.000000
   4463 C         -14.3625    7.1113  116.9850 ca      1  CNT         0.000000
   4464 C         -14.8647    5.9910  116.2760 ca      1  CNT         0.000000
   4465 C         -15.2797    4.8355  116.9850 ca      1  CNT         0.000000
   4466 C         -15.6050    3.6517  116.2760 ca      1  CNT         0.000000
   4467 C         -15.8388    2.4464  116.9850 ca      1  CNT         0.000000
   4468 C         -15.9796    1.2268  116.2760 ca      1  CNT         0.000000
   4469 C         -16.0266   -0.0000  116.9850 ca      1  CNT         0.000000
   4470 C         -15.9796   -1.2268  116.2760 ca      1  CNT         0.000000
   4471 C         -15.8388   -2.4464  116.9850 ca      1  CNT         0.000000
   4472 C         -15.6050   -3.6517  116.2760 ca      1  CNT         0.000000
   4473 C         -15.2797   -4.8355  116.9850 ca      1  CNT         0.000000
   4474 C         -14.8647   -5.9910  116.2760 ca      1  CNT         0.000000
   4475 C         -14.3625   -7.1113  116.9850 ca      1  CNT         0.000000
   4476 C         -13.7760   -8.1899  116.2760 ca      1  CNT         0.000000
   4477 C         -13.1086   -9.2204  116.9850 ca      1  CNT         0.000000
   4478 C         -12.3643  -10.1968  116.2760 ca      1  CNT         0.000000
   4479 C         -11.5475  -11.1134  116.9850 ca      1  CNT         0.000000
   4480 C         -10.6629  -11.9647  116.2760 ca      1  CNT         0.000000
   4481 C          -9.7157  -12.7458  116.9850 ca      1  CNT         0.000000
   4482 C          -8.7115  -13.4522  116.2760 ca      1  CNT         0.000000
   4483 C          -7.6562  -14.0795  116.9850 ca      1  CNT         0.000000
   4484 C          -6.5560  -14.6243  116.2760 ca      1  CNT         0.000000
   4485 C          -5.4173  -15.0833  116.9850 ca      1  CNT         0.000000
   4486 C          -4.2467  -15.4537  116.2760 ca      1  CNT         0.000000
   4487 C          -3.0513  -15.7334  116.9850 ca      1  CNT         0.000000
   4488 C          -1.8380  -15.9208  116.2760 ca      1  CNT         0.000000
   4489 C          -0.6139  -16.0148  116.9850 ca      1  CNT         0.000000
   4490 C           0.6139  -16.0148  116.2760 ca      1  CNT         0.000000
   4491 C           1.8380  -15.9208  116.9850 ca      1  CNT         0.000000
   4492 C           3.0513  -15.7334  116.2760 ca      1  CNT         0.000000
   4493 C           4.2467  -15.4537  116.9850 ca      1  CNT         0.000000
   4494 C           5.4173  -15.0833  116.2760 ca      1  CNT         0.000000
   4495 C           6.5560  -14.6243  116.9850 ca      1  CNT         0.000000
   4496 C           7.6562  -14.0795  116.2760 ca      1  CNT         0.000000
   4497 C           8.7115  -13.4522  116.9850 ca      1  CNT         0.000000
   4498 C           9.7157  -12.7458  116.2760 ca      1  CNT         0.000000
   4499 C          10.6629  -11.9647  116.9850 ca      1  CNT         0.000000
   4500 C          11.5475  -11.1134  116.2760 ca      1  CNT         0.000000
   4501 C          12.3643  -10.1968  116.9850 ca      1  CNT         0.000000
   4502 C          13.1086   -9.2204  116.2760 ca      1  CNT         0.000000
   4503 C          13.7760   -8.1899  116.9850 ca      1  CNT         0.000000
   4504 C          14.3625   -7.1113  116.2760 ca      1  CNT         0.000000
   4505 C          14.8647   -5.9910  116.9850 ca      1  CNT         0.000000
   4506 C          15.2797   -4.8355  116.2760 ca      1  CNT         0.000000
   4507 C          15.6050   -3.6517  116.9850 ca      1  CNT         0.000000
   4508 C          15.8388   -2.4464  116.2760 ca      1  CNT         0.000000
   4509 C          15.9796   -1.2268  116.9850 ca      1  CNT         0.000000
   4510 C          16.0266   -0.0000  116.2760 ca      1  CNT         0.000000
   4511 C          16.0266    0.0000  114.8580 ca      1  CNT         0.000000
   4512 C          15.9796    1.2268  114.1490 ca      1  CNT         0.000000
   4513 C          15.8388    2.4464  114.8580 ca      1  CNT         0.000000
   4514 C          15.6050    3.6517  114.1490 ca      1  CNT         0.000000
   4515 C          15.2797    4.8355  114.8580 ca      1  CNT         0.000000
   4516 C          14.8647    5.9910  114.1490 ca      1  CNT         0.000000
   4517 C          14.3625    7.1113  114.8580 ca      1  CNT         0.000000
   4518 C          13.7760    8.1899  114.1490 ca      1  CNT         0.000000
   4519 C          13.1086    9.2204  114.8580 ca      1  CNT         0.000000
   4520 C          12.3643   10.1968  114.1490 ca      1  CNT         0.000000
   4521 C          11.5475   11.1134  114.8580 ca      1  CNT         0.000000
   4522 C          10.6629   11.9647  114.1490 ca      1  CNT         0.000000
   4523 C           9.7157   12.7458  114.8580 ca      1  CNT         0.000000
   4524 C           8.7115   13.4522  114.1490 ca      1  CNT         0.000000
   4525 C           7.6562   14.0795  114.8580 ca      1  CNT         0.000000
   4526 C           6.5560   14.6243  114.1490 ca      1  CNT         0.000000
   4527 C           5.4173   15.0833  114.8580 ca      1  CNT         0.000000
   4528 C           4.2467   15.4537  114.1490 ca      1  CNT         0.000000
   4529 C           3.0513   15.7334  114.8580 ca      1  CNT         0.000000
   4530 C           1.8380   15.9208  114.1490 ca      1  CNT         0.000000
   4531 C           0.6139   16.0148  114.8580 ca      1  CNT         0.000000
   4532 C          -0.6139   16.0148  114.1490 ca      1  CNT         0.000000
   4533 C          -1.8380   15.9208  114.8580 ca      1  CNT         0.000000
   4534 C          -3.0513   15.7334  114.1490 ca      1  CNT         0.000000
   4535 C          -4.2467   15.4537  114.8580 ca      1  CNT         0.000000
   4536 C          -5.4173   15.0833  114.1490 ca      1  CNT         0.000000
   4537 C          -6.5560   14.6243  114.8580 ca      1  CNT         0.000000
   4538 C          -7.6562   14.0795  114.1490 ca      1  CNT         0.000000
   4539 C          -8.7115   13.4522  114.8580 ca      1  CNT         0.000000
   4540 C          -9.7157   12.7458  114.1490 ca      1  CNT         0.000000
   4541 C         -10.6629   11.9647  114.8580 ca      1  CNT         0.000000
   4542 C         -11.5475   11.1134  114.1490 ca      1  CNT         0.000000
   4543 C         -12.3643   10.1968  114.8580 ca      1  CNT         0.000000
   4544 C         -13.1086    9.2204  114.1490 ca      1  CNT         0.000000
   4545 C         -13.7760    8.1899  114.8580 ca      1  CNT         0.000000
   4546 C         -14.3625    7.1113  114.1490 ca      1  CNT         0.000000
   4547 C         -14.8647    5.9910  114.8580 ca      1  CNT         0.000000
   4548 C         -15.2797    4.8355  114.1490 ca      1  CNT         0.000000
   4549 C         -15.6050    3.6517  114.8580 ca      1  CNT         0.000000
   4550 C         -15.8388    2.4464  114.1490 ca      1  CNT         0.000000
   4551 C         -15.9796    1.2268  114.8580 ca      1  CNT         0.000000
   4552 C         -16.0266    0.0000  114.1490 ca      1  CNT         0.000000
   4553 C         -15.9796   -1.2268  114.8580 ca      1  CNT         0.000000
   4554 C         -15.8388   -2.4464  114.1490 ca      1  CNT         0.000000
   4555 C         -15.6050   -3.6517  114.8580 ca      1  CNT         0.000000
   4556 C         -15.2797   -4.8355  114.1490 ca      1  CNT         0.000000
   4557 C         -14.8647   -5.9910  114.8580 ca      1  CNT         0.000000
   4558 C         -14.3625   -7.1113  114.1490 ca      1  CNT         0.000000
   4559 C         -13.7760   -8.1899  114.8580 ca      1  CNT         0.000000
   4560 C         -13.1086   -9.2204  114.1490 ca      1  CNT         0.000000
   4561 C         -12.3643  -10.1968  114.8580 ca      1  CNT         0.000000
   4562 C         -11.5475  -11.1134  114.1490 ca      1  CNT         0.000000
   4563 C         -10.6629  -11.9647  114.8580 ca      1  CNT         0.000000
   4564 C          -9.7157  -12.7458  114.1490 ca      1  CNT         0.000000
   4565 C          -8.7115  -13.4522  114.8580 ca      1  CNT         0.000000
   4566 C          -7.6562  -14.0795  114.1490 ca      1  CNT         0.000000
   4567 C          -6.5560  -14.6243  114.8580 ca      1  CNT         0.000000
   4568 C          -5.4173  -15.0833  114.1490 ca      1  CNT         0.000000
   4569 C          -4.2467  -15.4537  114.8580 ca      1  CNT         0.000000
   4570 C          -3.0513  -15.7334  114.1490 ca      1  CNT         0.000000
   4571 C          -1.8380  -15.9208  114.8580 ca      1  CNT         0.000000
   4572 C          -0.6139  -16.0148  114.1490 ca      1  CNT         0.000000
   4573 C           0.6139  -16.0148  114.8580 ca      1  CNT         0.000000
   4574 C           1.8380  -15.9208  114.1490 ca      1  CNT         0.000000
   4575 C           3.0513  -15.7334  114.8580 ca      1  CNT         0.000000
   4576 C           4.2467  -15.4537  114.1490 ca      1  CNT         0.000000
   4577 C           5.4173  -15.0833  114.8580 ca      1  CNT         0.000000
   4578 C           6.5560  -14.6243  114.1490 ca      1  CNT         0.000000
   4579 C           7.6562  -14.0795  114.8580 ca      1  CNT         0.000000
   4580 C           8.7115  -13.4522  114.1490 ca      1  CNT         0.000000
   4581 C           9.7157  -12.7458  114.8580 ca      1  CNT         0.000000
   4582 C          10.6629  -11.9647  114.1490 ca      1  CNT         0.000000
   4583 C          11.5475  -11.1134  114.8580 ca      1  CNT         0.000000
   4584 C          12.3643  -10.1968  114.1490 ca      1  CNT         0.000000
   4585 C          13.1086   -9.2204  114.8580 ca      1  CNT         0.000000
   4586 C          13.7760   -8.1899  114.1490 ca      1  CNT         0.000000
   4587 C          14.3625   -7.1113  114.8580 ca      1  CNT         0.000000
   4588 C          14.8647   -5.9910  114.1490 ca      1  CNT         0.000000
   4589 C          15.2797   -4.8355  114.8580 ca      1  CNT         0.000000
   4590 C          15.6050   -3.6517  114.1490 ca      1  CNT         0.000000
   4591 C          15.8388   -2.4464  114.8580 ca      1  CNT         0.000000
   4592 C          15.9796   -1.2268  114.1490 ca      1  CNT         0.000000
   4593 C          15.9796    1.2268  121.2390 ca      1  CNT         0.000000
   4594 C          15.8388    2.4464  120.5300 ca      1  CNT         0.000000
   4595 C          15.6050    3.6517  121.2390 ca      1  CNT         0.000000
   4596 C          15.2797    4.8355  120.5300 ca      1  CNT         0.000000
   4597 C          14.8647    5.9910  121.2390 ca      1  CNT         0.000000
   4598 C          14.3625    7.1113  120.5300 ca      1  CNT         0.000000
   4599 C          13.7760    8.1899  121.2390 ca      1  CNT         0.000000
   4600 C          13.1086    9.2204  120.5300 ca      1  CNT         0.000000
   4601 C          12.3643   10.1968  121.2390 ca      1  CNT         0.000000
   4602 C          11.5475   11.1134  120.5300 ca      1  CNT         0.000000
   4603 C          10.6629   11.9647  121.2390 ca      1  CNT         0.000000
   4604 C           9.7157   12.7458  120.5300 ca      1  CNT         0.000000
   4605 C           8.7115   13.4522  121.2390 ca      1  CNT         0.000000
   4606 C           7.6562   14.0795  120.5300 ca      1  CNT         0.000000
   4607 C           6.5560   14.6243  121.2390 ca      1  CNT         0.000000
   4608 C           5.4173   15.0833  120.5300 ca      1  CNT         0.000000
   4609 C           4.2467   15.4537  121.2390 ca      1  CNT         0.000000
   4610 C           3.0513   15.7334  120.5300 ca      1  CNT         0.000000
   4611 C           1.8380   15.9208  121.2390 ca      1  CNT         0.000000
   4612 C           0.6139   16.0148  120.5300 ca      1  CNT         0.000000
   4613 C          -0.6139   16.0148  121.2390 ca      1  CNT         0.000000
   4614 C          -1.8380   15.9208  120.5300 ca      1  CNT         0.000000
   4615 C          -3.0513   15.7334  121.2390 ca      1  CNT         0.000000
   4616 C          -4.2467   15.4537  120.5300 ca      1  CNT         0.000000
   4617 C          -5.4173   15.0833  121.2390 ca      1  CNT         0.000000
   4618 C          -6.5560   14.6243  120.5300 ca      1  CNT         0.000000
   4619 C          -7.6562   14.0795  121.2390 ca      1  CNT         0.000000
   4620 C          -8.7115   13.4522  120.5300 ca      1  CNT         0.000000
   4621 C          -9.7157   12.7458  121.2390 ca      1  CNT         0.000000
   4622 C         -10.6629   11.9647  120.5300 ca      1  CNT         0.000000
   4623 C         -11.5475   11.1134  121.2390 ca      1  CNT         0.000000
   4624 C         -12.3643   10.1968  120.5300 ca      1  CNT         0.000000
   4625 C         -13.1086    9.2204  121.2390 ca      1  CNT         0.000000
   4626 C         -13.7760    8.1899  120.5300 ca      1  CNT         0.000000
   4627 C         -14.3625    7.1113  121.2390 ca      1  CNT         0.000000
   4628 C         -14.8647    5.9910  120.5300 ca      1  CNT         0.000000
   4629 C         -15.2797    4.8355  121.2390 ca      1  CNT         0.000000
   4630 C         -15.6050    3.6517  120.5300 ca      1  CNT         0.000000
   4631 C         -15.8388    2.4464  121.2390 ca      1  CNT         0.000000
   4632 C         -15.9796    1.2268  120.5300 ca      1  CNT         0.000000
   4633 C         -16.0266   -0.0000  121.2390 ca      1  CNT         0.000000
   4634 C         -15.9796   -1.2268  120.5300 ca      1  CNT         0.000000
   4635 C         -15.8388   -2.4464  121.2390 ca      1  CNT         0.000000
   4636 C         -15.6050   -3.6517  120.5300 ca      1  CNT         0.000000
   4637 C         -15.2797   -4.8355  121.2390 ca      1  CNT         0.000000
   4638 C         -14.8647   -5.9910  120.5300 ca      1  CNT         0.000000
   4639 C         -14.3625   -7.1113  121.2390 ca      1  CNT         0.000000
   4640 C         -13.7760   -8.1899  120.5300 ca      1  CNT         0.000000
   4641 C         -13.1086   -9.2204  121.2390 ca      1  CNT         0.000000
   4642 C         -12.3643  -10.1968  120.5300 ca      1  CNT         0.000000
   4643 C         -11.5475  -11.1134  121.2390 ca      1  CNT         0.000000
   4644 C         -10.6629  -11.9647  120.5300 ca      1  CNT         0.000000
   4645 C          -9.7157  -12.7458  121.2390 ca      1  CNT         0.000000
   4646 C          -8.7115  -13.4522  120.5300 ca      1  CNT         0.000000
   4647 C          -7.6562  -14.0795  121.2390 ca      1  CNT         0.000000
   4648 C          -6.5560  -14.6243  120.5300 ca      1  CNT         0.000000
   4649 C          -5.4173  -15.0833  121.2390 ca      1  CNT         0.000000
   4650 C          -4.2467  -15.4537  120.5300 ca      1  CNT         0.000000
   4651 C          -3.0513  -15.7334  121.2390 ca      1  CNT         0.000000
   4652 C          -1.8380  -15.9208  120.5300 ca      1  CNT         0.000000
   4653 C          -0.6139  -16.0148  121.2390 ca      1  CNT         0.000000
   4654 C           0.6139  -16.0148  120.5300 ca      1  CNT         0.000000
   4655 C           1.8380  -15.9208  121.2390 ca      1  CNT         0.000000
   4656 C           3.0513  -15.7334  120.5300 ca      1  CNT         0.000000
   4657 C           4.2467  -15.4537  121.2390 ca      1  CNT         0.000000
   4658 C           5.4173  -15.0833  120.5300 ca      1  CNT         0.000000
   4659 C           6.5560  -14.6243  121.2390 ca      1  CNT         0.000000
   4660 C           7.6562  -14.0795  120.5300 ca      1  CNT         0.000000
   4661 C           8.7115  -13.4522  121.2390 ca      1  CNT         0.000000
   4662 C           9.7157  -12.7458  120.5300 ca      1  CNT         0.000000
   4663 C          10.6629  -11.9647  121.2390 ca      1  CNT         0.000000
   4664 C          11.5475  -11.1134  120.5300 ca      1  CNT         0.000000
   4665 C          12.3643  -10.1968  121.2390 ca      1  CNT         0.000000
   4666 C          13.1086   -9.2204  120.5300 ca      1  CNT         0.000000
   4667 C          13.7760   -8.1899  121.2390 ca      1  CNT         0.000000
   4668 C          14.3625   -7.1113  120.5300 ca      1  CNT         0.000000
   4669 C          14.8647   -5.9910  121.2390 ca      1  CNT         0.000000
   4670 C          15.2797   -4.8355  120.5300 ca      1  CNT         0.000000
   4671 C          15.6050   -3.6517  121.2390 ca      1  CNT         0.000000
   4672 C          15.8388   -2.4464  120.5300 ca      1  CNT         0.000000
   4673 C          15.9796   -1.2268  121.2390 ca      1  CNT         0.000000
   4674 C          16.0266   -0.0000  120.5300 ca      1  CNT         0.000000
   4675 C          16.0266    0.0000  119.1120 ca      1  CNT         0.000000
   4676 C          15.9796    1.2268  118.4030 ca      1  CNT         0.000000
   4677 C          15.8388    2.4464  119.1120 ca      1  CNT         0.000000
   4678 C          15.6050    3.6517  118.4030 ca      1  CNT         0.000000
   4679 C          15.2797    4.8355  119.1120 ca      1  CNT         0.000000
   4680 C          14.8647    5.9910  118.4030 ca      1  CNT         0.000000
   4681 C          14.3625    7.1113  119.1120 ca      1  CNT         0.000000
   4682 C          13.7760    8.1899  118.4030 ca      1  CNT         0.000000
   4683 C          13.1086    9.2204  119.1120 ca      1  CNT         0.000000
   4684 C          12.3643   10.1968  118.4030 ca      1  CNT         0.000000
   4685 C          11.5475   11.1134  119.1120 ca      1  CNT         0.000000
   4686 C          10.6629   11.9647  118.4030 ca      1  CNT         0.000000
   4687 C           9.7157   12.7458  119.1120 ca      1  CNT         0.000000
   4688 C           8.7115   13.4522  118.4030 ca      1  CNT         0.000000
   4689 C           7.6562   14.0795  119.1120 ca      1  CNT         0.000000
   4690 C           6.5560   14.6243  118.4030 ca      1  CNT         0.000000
   4691 C           5.4173   15.0833  119.1120 ca      1  CNT         0.000000
   4692 C           4.2467   15.4537  118.4030 ca      1  CNT         0.000000
   4693 C           3.0513   15.7334  119.1120 ca      1  CNT         0.000000
   4694 C           1.8380   15.9208  118.4030 ca      1  CNT         0.000000
   4695 C           0.6139   16.0148  119.1120 ca      1  CNT         0.000000
   4696 C          -0.6139   16.0148  118.4030 ca      1  CNT         0.000000
   4697 C          -1.8380   15.9208  119.1120 ca      1  CNT         0.000000
   4698 C          -3.0513   15.7334  118.4030 ca      1  CNT         0.000000
   4699 C          -4.2467   15.4537  119.1120 ca      1  CNT         0.000000
   4700 C          -5.4173   15.0833  118.4030 ca      1  CNT         0.000000
   4701 C          -6.5560   14.6243  119.1120 ca      1  CNT         0.000000
   4702 C          -7.6562   14.0795  118.4030 ca      1  CNT         0.000000
   4703 C          -8.7115   13.4522  119.1120 ca      1  CNT         0.000000
   4704 C          -9.7157   12.7458  118.4030 ca      1  CNT         0.000000
   4705 C         -10.6629   11.9647  119.1120 ca      1  CNT         0.000000
   4706 C         -11.5475   11.1134  118.4030 ca      1  CNT         0.000000
   4707 C         -12.3643   10.1968  119.1120 ca      1  CNT         0.000000
   4708 C         -13.1086    9.2204  118.4030 ca      1  CNT         0.000000
   4709 C         -13.7760    8.1899  119.1120 ca      1  CNT         0.000000
   4710 C         -14.3625    7.1113  118.4030 ca      1  CNT         0.000000
   4711 C         -14.8647    5.9910  119.1120 ca      1  CNT         0.000000
   4712 C         -15.2797    4.8355  118.4030 ca      1  CNT         0.000000
   4713 C         -15.6050    3.6517  119.1120 ca      1  CNT         0.000000
   4714 C         -15.8388    2.4464  118.4030 ca      1  CNT         0.000000
   4715 C         -15.9796    1.2268  119.1120 ca      1  CNT         0.000000
   4716 C         -16.0266    0.0000  118.4030 ca      1  CNT         0.000000
   4717 C         -15.9796   -1.2268  119.1120 ca      1  CNT         0.000000
   4718 C         -15.8388   -2.4464  118.4030 ca      1  CNT         0.000000
   4719 C         -15.6050   -3.6517  119.1120 ca      1  CNT         0.000000
   4720 C         -15.2797   -4.8355  118.4030 ca      1  CNT         0.000000
   4721 C         -14.8647   -5.9910  119.1120 ca      1  CNT         0.000000
   4722 C         -14.3625   -7.1113  118.4030 ca      1  CNT         0.000000
   4723 C         -13.7760   -8.1899  119.1120 ca      1  CNT         0.000000
   4724 C         -13.1086   -9.2204  118.4030 ca      1  CNT         0.000000
   4725 C         -12.3643  -10.1968  119.1120 ca      1  CNT         0.000000
   4726 C         -11.5475  -11.1134  118.4030 ca      1  CNT         0.000000
   4727 C         -10.6629  -11.9647  119.1120 ca      1  CNT         0.000000
   4728 C          -9.7157  -12.7458  118.4030 ca      1  CNT         0.000000
   4729 C          -8.7115  -13.4522  119.1120 ca      1  CNT         0.000000
   4730 C          -7.6562  -14.0795  118.4030 ca      1  CNT         0.000000
   4731 C          -6.5560  -14.6243  119.1120 ca      1  CNT         0.000000
   4732 C          -5.4173  -15.0833  118.4030 ca      1  CNT         0.000000
   4733 C          -4.2467  -15.4537  119.1120 ca      1  CNT         0.000000
   4734 C          -3.0513  -15.7334  118.4030 ca      1  CNT         0.000000
   4735 C          -1.8380  -15.9208  119.1120 ca      1  CNT         0.000000
   4736 C          -0.6139  -16.0148  118.4030 ca      1  CNT         0.000000
   4737 C           0.6139  -16.0148  119.1120 ca      1  CNT         0.000000
   4738 C           1.8380  -15.9208  118.4030 ca      1  CNT         0.000000
   4739 C           3.0513  -15.7334  119.1120 ca      1  CNT         0.000000
   4740 C           4.2467  -15.4537  118.4030 ca      1  CNT         0.000000
   4741 C           5.4173  -15.0833  119.1120 ca      1  CNT         0.000000
   4742 C           6.5560  -14.6243  118.4030 ca      1  CNT         0.000000
   4743 C           7.6562  -14.0795  119.1120 ca      1  CNT         0.000000
   4744 C           8.7115  -13.4522  118.4030 ca      1  CNT         0.000000
   4745 C           9.7157  -12.7458  119.1120 ca      1  CNT         0.000000
   4746 C          10.6629  -11.9647  118.4030 ca      1  CNT         0.000000
   4747 C          11.5475  -11.1134  119.1120 ca      1  CNT         0.000000
   4748 C          12.3643  -10.1968  118.4030 ca      1  CNT         0.000000
   4749 C          13.1086   -9.2204  119.1120 ca      1  CNT         0.000000
   4750 C          13.7760   -8.1899  118.4030 ca      1  CNT         0.000000
   4751 C          14.3625   -7.1113  119.1120 ca      1  CNT         0.000000
   4752 C          14.8647   -5.9910  118.4030 ca      1  CNT         0.000000
   4753 C          15.2797   -4.8355  119.1120 ca      1  CNT         0.000000
   4754 C          15.6050   -3.6517  118.4030 ca      1  CNT         0.000000
   4755 C          15.8388   -2.4464  119.1120 ca      1  CNT         0.000000
   4756 C          15.9796   -1.2268  118.4030 ca      1  CNT         0.000000
@<TRIPOS>BOND
    1     1    82  1
    2     1     2  1
    3     1   248  1
    4     2    85  1
    5     2     3  1
    6     3     4  1
    7     3   250  1
    8     4    87  1
    9     4     5  1
   10     5   252  1
   11     5     6  1
   12     6    89  1
   13     6     7  1
   14     7     8  1
   15     7   254  1
   16     8    91  1
   17     8     9  1
   18     9    10  1
   19     9   256  1
   20    10    93  1
   21    10    11  1
   22    11   258  1
   23    11    12  1
   24    12    95  1
   25    12    13  1
   26    13   260  1
   27    13    14  1
   28    14    97  1
   29    14    15  1
   30    15   262  1
   31    15    16  1
   32    16    99  1
   33    16    17  1
   34    17    18  1
   35    17   264  1
   36    18   101  1
   37    18    19  1
   38    19    20  1
   39    19   266  1
   40    20    21  1
   41    20   103  1
   42    21   268  1
   43    21    22  1
   44    22   105  1
   45    22    23  1
   46    23   270  1
   47    23    24  1
   48    24   107  1
   49    24    25  1
   50    25   272  1
   51    25    26  1
   52    26   109  1
   53    26    27  1
   54    27   274  1
   55    27    28  1
   56    28   111  1
   57    28    29  1
   58    29   276  1
   59    29    30  1
   60    30   113  1
   61    30    31  1
   62    31   278  1
   63    31    32  1
   64    32   115  1
   65    32    33  1
   66    33    34  1
   67    33   280  1
   68    34   117  1
   69    34    35  1
   70    35    36  1
   71    35   282  1
   72    36   119  1
   73    36    37  1
   74    37    38  1
   75    37   284  1
   76    38   121  1
   77    38    39  1
   78    39    40  1
   79    39   286  1
   80    40   123  1
   81    40    41  1
   82    41    42  1
   83    41   288  1
   84    42   125  1
   85    42    43  1
   86    43    44  1
   87    43   290  1
   88    44   127  1
   89    44    45  1
   90    45    46  1
   91    45   292  1
   92    46   129  1
   93    46    47  1
   94    47   294  1
   95    47    48  1
   96    48   131  1
   97    48    49  1
   98    49    50  1
   99    49   296  1
  100    50   133  1
  101    50    51  1
  102    51    52  1
  103    51   298  1
  104    52   135  1
  105    52    53  1
  106    53    54  1
  107    53   300  1
  108    54   137  1
  109    54    55  1
  110    55    56  1
  111    55   302  1
  112    56   139  1
  113    56    57  1
  114    57    58  1
  115    57   304  1
  116    58   141  1
  117    58    59  1
  118    59    60  1
  119    59   306  1
  120    60   143  1
  121    60    61  1
  122    61    62  1
  123    61   308  1
  124    62   145  1
  125    62    63  1
  126    63    64  1
  127    63   310  1
  128    64   147  1
  129    64    65  1
  130    65    66  1
  131    65   312  1
  132    66   149  1
  133    66    67  1
  134    67    68  1
  135    67   314  1
  136    68   151  1
  137    68    69  1
  138    69    70  1
  139    69   316  1
  140    70   153  1
  141    70    71  1
  142    71    72  1
  143    71   318  1
  144    72   155  1
  145    72    73  1
  146    73   320  1
  147    73    74  1
  148    74   157  1
  149    74    75  1
  150    75    76  1
  151    75   322  1
  152    76   159  1
  153    76    77  1
  154    77    78  1
  155    77   324  1
  156    78   161  1
  157    78    79  1
  158    79    80  1
  159    79   326  1
  160    80   163  1
  161    80    81  1
  162    81    82  1
  163    81   328  1
  164    82    83  1
  165    83   164  1
  166    83    84  1
  167    84    85  1
  168    85    86  1
  169    86    87  1
  170    87    88  1
  171    88    89  1
  172    89    90  1
  173    90    91  1
  174    91    92  1
  175    92    93  1
  176    93    94  1
  177    94    95  1
  178    95    96  1
  179    96    97  1
  180    97    98  1
  181    98    99  1
  182    99   100  1
  183   100   101  1
  184   101   102  1
  185   102   103  1
  186   103   104  1
  187   104   105  1
  188   105   106  1
  189   106   107  1
  190   107   108  1
  191   108   109  1
  192   109   110  1
  193   110   111  1
  194   111   112  1
  195   112   113  1
  196   113   114  1
  197   114   115  1
  198   115   116  1
  199   116   117  1
  200   117   118  1
  201   118   119  1
  202   119   120  1
  203   120   121  1
  204   121   122  1
  205   122   123  1
  206   123   124  1
  207   124   125  1
  208   125   126  1
  209   126   127  1
  210   127   128  1
  211   128   129  1
  212   129   130  1
  213   130   131  1
  214   131   132  1
  215   132   133  1
  216   133   134  1
  217   134   135  1
  218   135   136  1
  219   136   137  1
  220   137   138  1
  221   138   139  1
  222   139   140  1
  223   140   141  1
  224   141   142  1
  225   142   143  1
  226   143   144  1
  227   144   145  1
  228   145   146  1
  229   146   147  1
  230   147   148  1
  231   148   149  1
  232   149   150  1
  233   150   151  1
  234   151   152  1
  235   152   153  1
  236   153   154  1
  237   154   155  1
  238   155   156  1
  239   156   157  1
  240   157   158  1
  241   158   159  1
  242   159   160  1
  243   160   161  1
  244   161   162  1
  245   162   163  1
  246   163   164  1
  247   165   246  1
  248   165   166  1
  249   165   412  1
  250   166   249  1
  251   166   167  1
  252   167   168  1
  253   167   414  1
  254   168   251  1
  255   168   169  1
  256   169   416  1
  257   169   170  1
  258   170   253  1
  259   170   171  1
  260   171   172  1
  261   171   418  1
  262   172   255  1
  263   172   173  1
  264   173   174  1
  265   173   420  1
  266   174   257  1
  267   174   175  1
  268   175   422  1
  269   175   176  1
  270   176   259  1
  271   176   177  1
  272   177   424  1
  273   177   178  1
  274   178   261  1
  275   178   179  1
  276   179   426  1
  277   179   180  1
  278   180   263  1
  279   180   181  1
  280   181   182  1
  281   181   428  1
  282   182   265  1
  283   182   183  1
  284   183   184  1
  285   183   430  1
  286   184   185  1
  287   184   267  1
  288   185   432  1
  289   185   186  1
  290   186   269  1
  291   186   187  1
  292   187   434  1
  293   187   188  1
  294   188   271  1
  295   188   189  1
  296   189   436  1
  297   189   190  1
  298   190   273  1
  299   190   191  1
  300   191   438  1
  301   191   192  1
  302   192   275  1
  303   192   193  1
  304   193   440  1
  305   193   194  1
  306   194   277  1
  307   194   195  1
  308   195   442  1
  309   195   196  1
  310   196   279  1
  311   196   197  1
  312   197   198  1
  313   197   444  1
  314   198   281  1
  315   198   199  1
  316   199   200  1
  317   199   446  1
  318   200   283  1
  319   200   201  1
  320   201   202  1
  321   201   448  1
  322   202   285  1
  323   202   203  1
  324   203   204  1
  325   203   450  1
  326   204   287  1
  327   204   205  1
  328   205   206  1
  329   205   452  1
  330   206   289  1
  331   206   207  1
  332   207   208  1
  333   207   454  1
  334   208   291  1
  335   208   209  1
  336   209   210  1
  337   209   456  1
  338   210   293  1
  339   210   211  1
  340   211   458  1
  341   211   212  1
  342   212   295  1
  343   212   213  1
  344   213   214  1
  345   213   460  1
  346   214   297  1
  347   214   215  1
  348   215   216  1
  349   215   462  1
  350   216   299  1
  351   216   217  1
  352   217   218  1
  353   217   464  1
  354   218   301  1
  355   218   219  1
  356   219   220  1
  357   219   466  1
  358   220   303  1
  359   220   221  1
  360   221   222  1
  361   221   468  1
  362   222   305  1
  363   222   223  1
  364   223   224  1
  365   223   470  1
  366   224   307  1
  367   224   225  1
  368   225   226  1
  369   225   472  1
  370   226   309  1
  371   226   227  1
  372   227   228  1
  373   227   474  1
  374   228   311  1
  375   228   229  1
  376   229   230  1
  377   229   476  1
  378   230   313  1
  379   230   231  1
  380   231   232  1
  381   231   478  1
  382   232   315  1
  383   232   233  1
  384   233   234  1
  385   233   480  1
  386   234   317  1
  387   234   235  1
  388   235   236  1
  389   235   482  1
  390   236   319  1
  391   236   237  1
  392   237   484  1
  393   237   238  1
  394   238   321  1
  395   238   239  1
  396   239   240  1
  397   239   486  1
  398   240   323  1
  399   240   241  1
  400   241   242  1
  401   241   488  1
  402   242   325  1
  403   242   243  1
  404   243   244  1
  405   243   490  1
  406   244   327  1
  407   244   245  1
  408   245   246  1
  409   245   492  1
  410   246   247  1
  411   247   328  1
  412   247   248  1
  413   248   249  1
  414   249   250  1
  415   250   251  1
  416   251   252  1
  417   252   253  1
  418   253   254  1
  419   254   255  1
  420   255   256  1
  421   256   257  1
  422   257   258  1
  423   258   259  1
  424   259   260  1
  425   260   261  1
  426   261   262  1
  427   262   263  1
  428   263   264  1
  429   264   265  1
  430   265   266  1
  431   266   267  1
  432   267   268  1
  433   268   269  1
  434   269   270  1
  435   270   271  1
  436   271   272  1
  437   272   273  1
  438   273   274  1
  439   274   275  1
  440   275   276  1
  441   276   277  1
  442   277   278  1
  443   278   279  1
  444   279   280  1
  445   280   281  1
  446   281   282  1
  447   282   283  1
  448   283   284  1
  449   284   285  1
  450   285   286  1
  451   286   287  1
  452   287   288  1
  453   288   289  1
  454   289   290  1
  455   290   291  1
  456   291   292  1
  457   292   293  1
  458   293   294  1
  459   294   295  1
  460   295   296  1
  461   296   297  1
  462   297   298  1
  463   298   299  1
  464   299   300  1
  465   300   301  1
  466   301   302  1
  467   302   303  1
  468   303   304  1
  469   304   305  1
  470   305   306  1
  471   306   307  1
  472   307   308  1
  473   308   309  1
  474   309   310  1
  475   310   311  1
  476   311   312  1
  477   312   313  1
  478   313   314  1
  479   314   315  1
  480   315   316  1
  481   316   317  1
  482   317   318  1
  483   318   319  1
  484   319   320  1
  485   320   321  1
  486   321   322  1
  487   322   323  1
  488   323   324  1
  489   324   325  1
  490   325   326  1
  491   326   327  1
  492   327   328  1
  493   329   410  1
  494   329   330  1
  495   329   576  1
  496   330   413  1
  497   330   331  1
  498   331   332  1
  499   331   578  1
  500   332   415  1
  501   332   333  1
  502   333   580  1
  503   333   334  1
  504   334   417  1
  505   334   335  1
  506   335   336  1
  507   335   582  1
  508   336   419  1
  509   336   337  1
  510   337   338  1
  511   337   584  1
  512   338   421  1
  513   338   339  1
  514   339   586  1
  515   339   340  1
  516   340   423  1
  517   340   341  1
  518   341   588  1
  519   341   342  1
  520   342   425  1
  521   342   343  1
  522   343   590  1
  523   343   344  1
  524   344   427  1
  525   344   345  1
  526   345   346  1
  527   345   592  1
  528   346   429  1
  529   346   347  1
  530   347   348  1
  531   347   594  1
  532   348   349  1
  533   348   431  1
  534   349   596  1
  535   349   350  1
  536   350   433  1
  537   350   351  1
  538   351   598  1
  539   351   352  1
  540   352   435  1
  541   352   353  1
  542   353   600  1
  543   353   354  1
  544   354   437  1
  545   354   355  1
  546   355   602  1
  547   355   356  1
  548   356   439  1
  549   356   357  1
  550   357   604  1
  551   357   358  1
  552   358   441  1
  553   358   359  1
  554   359   606  1
  555   359   360  1
  556   360   443  1
  557   360   361  1
  558   361   362  1
  559   361   608  1
  560   362   445  1
  561   362   363  1
  562   363   364  1
  563   363   610  1
  564   364   447  1
  565   364   365  1
  566   365   366  1
  567   365   612  1
  568   366   449  1
  569   366   367  1
  570   367   368  1
  571   367   614  1
  572   368   451  1
  573   368   369  1
  574   369   370  1
  575   369   616  1
  576   370   453  1
  577   370   371  1
  578   371   372  1
  579   371   618  1
  580   372   455  1
  581   372   373  1
  582   373   374  1
  583   373   620  1
  584   374   457  1
  585   374   375  1
  586   375   622  1
  587   375   376  1
  588   376   459  1
  589   376   377  1
  590   377   378  1
  591   377   624  1
  592   378   461  1
  593   378   379  1
  594   379   380  1
  595   379   626  1
  596   380   463  1
  597   380   381  1
  598   381   382  1
  599   381   628  1
  600   382   465  1
  601   382   383  1
  602   383   384  1
  603   383   630  1
  604   384   467  1
  605   384   385  1
  606   385   386  1
  607   385   632  1
  608   386   469  1
  609   386   387  1
  610   387   388  1
  611   387   634  1
  612   388   471  1
  613   388   389  1
  614   389   390  1
  615   389   636  1
  616   390   473  1
  617   390   391  1
  618   391   392  1
  619   391   638  1
  620   392   475  1
  621   392   393  1
  622   393   394  1
  623   393   640  1
  624   394   477  1
  625   394   395  1
  626   395   396  1
  627   395   642  1
  628   396   479  1
  629   396   397  1
  630   397   398  1
  631   397   644  1
  632   398   481  1
  633   398   399  1
  634   399   400  1
  635   399   646  1
  636   400   483  1
  637   400   401  1
  638   401   648  1
  639   401   402  1
  640   402   485  1
  641   402   403  1
  642   403   404  1
  643   403   650  1
  644   404   487  1
  645   404   405  1
  646   405   406  1
  647   405   652  1
  648   406   489  1
  649   406   407  1
  650   407   408  1
  651   407   654  1
  652   408   491  1
  653   408   409  1
  654   409   410  1
  655   409   656  1
  656   410   411  1
  657   411   492  1
  658   411   412  1
  659   412   413  1
  660   413   414  1
  661   414   415  1
  662   415   416  1
  663   416   417  1
  664   417   418  1
  665   418   419  1
  666   419   420  1
  667   420   421  1
  668   421   422  1
  669   422   423  1
  670   423   424  1
  671   424   425  1
  672   425   426  1
  673   426   427  1
  674   427   428  1
  675   428   429  1
  676   429   430  1
  677   430   431  1
  678   431   432  1
  679   432   433  1
  680   433   434  1
  681   434   435  1
  682   435   436  1
  683   436   437  1
  684   437   438  1
  685   438   439  1
  686   439   440  1
  687   440   441  1
  688   441   442  1
  689   442   443  1
  690   443   444  1
  691   444   445  1
  692   445   446  1
  693   446   447  1
  694   447   448  1
  695   448   449  1
  696   449   450  1
  697   450   451  1
  698   451   452  1
  699   452   453  1
  700   453   454  1
  701   454   455  1
  702   455   456  1
  703   456   457  1
  704   457   458  1
  705   458   459  1
  706   459   460  1
  707   460   461  1
  708   461   462  1
  709   462   463  1
  710   463   464  1
  711   464   465  1
  712   465   466  1
  713   466   467  1
  714   467   468  1
  715   468   469  1
  716   469   470  1
  717   470   471  1
  718   471   472  1
  719   472   473  1
  720   473   474  1
  721   474   475  1
  722   475   476  1
  723   476   477  1
  724   477   478  1
  725   478   479  1
  726   479   480  1
  727   480   481  1
  728   481   482  1
  729   482   483  1
  730   483   484  1
  731   484   485  1
  732   485   486  1
  733   486   487  1
  734   487   488  1
  735   488   489  1
  736   489   490  1
  737   490   491  1
  738   491   492  1
  739   493   574  1
  740   493   494  1
  741   493   740  1
  742   494   577  1
  743   494   495  1
  744   495   496  1
  745   495   742  1
  746   496   579  1
  747   496   497  1
  748   497   744  1
  749   497   498  1
  750   498   581  1
  751   498   499  1
  752   499   500  1
  753   499   746  1
  754   500   583  1
  755   500   501  1
  756   501   502  1
  757   501   748  1
  758   502   585  1
  759   502   503  1
  760   503   750  1
  761   503   504  1
  762   504   587  1
  763   504   505  1
  764   505   752  1
  765   505   506  1
  766   506   589  1
  767   506   507  1
  768   507   754  1
  769   507   508  1
  770   508   591  1
  771   508   509  1
  772   509   510  1
  773   509   756  1
  774   510   593  1
  775   510   511  1
  776   511   512  1
  777   511   758  1
  778   512   513  1
  779   512   595  1
  780   513   760  1
  781   513   514  1
  782   514   597  1
  783   514   515  1
  784   515   762  1
  785   515   516  1
  786   516   599  1
  787   516   517  1
  788   517   764  1
  789   517   518  1
  790   518   601  1
  791   518   519  1
  792   519   766  1
  793   519   520  1
  794   520   603  1
  795   520   521  1
  796   521   768  1
  797   521   522  1
  798   522   605  1
  799   522   523  1
  800   523   770  1
  801   523   524  1
  802   524   607  1
  803   524   525  1
  804   525   526  1
  805   525   772  1
  806   526   609  1
  807   526   527  1
  808   527   528  1
  809   527   774  1
  810   528   611  1
  811   528   529  1
  812   529   530  1
  813   529   776  1
  814   530   613  1
  815   530   531  1
  816   531   532  1
  817   531   778  1
  818   532   615  1
  819   532   533  1
  820   533   534  1
  821   533   780  1
  822   534   617  1
  823   534   535  1
  824   535   536  1
  825   535   782  1
  826   536   619  1
  827   536   537  1
  828   537   538  1
  829   537   784  1
  830   538   621  1
  831   538   539  1
  832   539   786  1
  833   539   540  1
  834   540   623  1
  835   540   541  1
  836   541   542  1
  837   541   788  1
  838   542   625  1
  839   542   543  1
  840   543   544  1
  841   543   790  1
  842   544   627  1
  843   544   545  1
  844   545   546  1
  845   545   792  1
  846   546   629  1
  847   546   547  1
  848   547   548  1
  849   547   794  1
  850   548   631  1
  851   548   549  1
  852   549   550  1
  853   549   796  1
  854   550   633  1
  855   550   551  1
  856   551   552  1
  857   551   798  1
  858   552   635  1
  859   552   553  1
  860   553   554  1
  861   553   800  1
  862   554   637  1
  863   554   555  1
  864   555   556  1
  865   555   802  1
  866   556   639  1
  867   556   557  1
  868   557   558  1
  869   557   804  1
  870   558   641  1
  871   558   559  1
  872   559   560  1
  873   559   806  1
  874   560   643  1
  875   560   561  1
  876   561   562  1
  877   561   808  1
  878   562   645  1
  879   562   563  1
  880   563   564  1
  881   563   810  1
  882   564   647  1
  883   564   565  1
  884   565   812  1
  885   565   566  1
  886   566   649  1
  887   566   567  1
  888   567   568  1
  889   567   814  1
  890   568   651  1
  891   568   569  1
  892   569   570  1
  893   569   816  1
  894   570   653  1
  895   570   571  1
  896   571   572  1
  897   571   818  1
  898   572   655  1
  899   572   573  1
  900   573   574  1
  901   573   820  1
  902   574   575  1
  903   575   656  1
  904   575   576  1
  905   576   577  1
  906   577   578  1
  907   578   579  1
  908   579   580  1
  909   580   581  1
  910   581   582  1
  911   582   583  1
  912   583   584  1
  913   584   585  1
  914   585   586  1
  915   586   587  1
  916   587   588  1
  917   588   589  1
  918   589   590  1
  919   590   591  1
  920   591   592  1
  921   592   593  1
  922   593   594  1
  923   594   595  1
  924   595   596  1
  925   596   597  1
  926   597   598  1
  927   598   599  1
  928   599   600  1
  929   600   601  1
  930   601   602  1
  931   602   603  1
  932   603   604  1
  933   604   605  1
  934   605   606  1
  935   606   607  1
  936   607   608  1
  937   608   609  1
  938   609   610  1
  939   610   611  1
  940   611   612  1
  941   612   613  1
  942   613   614  1
  943   614   615  1
  944   615   616  1
  945   616   617  1
  946   617   618  1
  947   618   619  1
  948   619   620  1
  949   620   621  1
  950   621   622  1
  951   622   623  1
  952   623   624  1
  953   624   625  1
  954   625   626  1
  955   626   627  1
  956   627   628  1
  957   628   629  1
  958   629   630  1
  959   630   631  1
  960   631   632  1
  961   632   633  1
  962   633   634  1
  963   634   635  1
  964   635   636  1
  965   636   637  1
  966   637   638  1
  967   638   639  1
  968   639   640  1
  969   640   641  1
  970   641   642  1
  971   642   643  1
  972   643   644  1
  973   644   645  1
  974   645   646  1
  975   646   647  1
  976   647   648  1
  977   648   649  1
  978   649   650  1
  979   650   651  1
  980   651   652  1
  981   652   653  1
  982   653   654  1
  983   654   655  1
  984   655   656  1
  985   657   738  1
  986   657   658  1
  987   657   904  1
  988   658   741  1
  989   658   659  1
  990   659   660  1
  991   659   906  1
  992   660   743  1
  993   660   661  1
  994   661   908  1
  995   661   662  1
  996   662   745  1
  997   662   663  1
  998   663   664  1
  999   663   910  1
 1000   664   747  1
 1001   664   665  1
 1002   665   666  1
 1003   665   912  1
 1004   666   749  1
 1005   666   667  1
 1006   667   914  1
 1007   667   668  1
 1008   668   751  1
 1009   668   669  1
 1010   669   916  1
 1011   669   670  1
 1012   670   753  1
 1013   670   671  1
 1014   671   918  1
 1015   671   672  1
 1016   672   755  1
 1017   672   673  1
 1018   673   674  1
 1019   673   920  1
 1020   674   757  1
 1021   674   675  1
 1022   675   676  1
 1023   675   922  1
 1024   676   677  1
 1025   676   759  1
 1026   677   924  1
 1027   677   678  1
 1028   678   761  1
 1029   678   679  1
 1030   679   926  1
 1031   679   680  1
 1032   680   763  1
 1033   680   681  1
 1034   681   928  1
 1035   681   682  1
 1036   682   765  1
 1037   682   683  1
 1038   683   930  1
 1039   683   684  1
 1040   684   767  1
 1041   684   685  1
 1042   685   932  1
 1043   685   686  1
 1044   686   769  1
 1045   686   687  1
 1046   687   934  1
 1047   687   688  1
 1048   688   771  1
 1049   688   689  1
 1050   689   690  1
 1051   689   936  1
 1052   690   773  1
 1053   690   691  1
 1054   691   692  1
 1055   691   938  1
 1056   692   775  1
 1057   692   693  1
 1058   693   694  1
 1059   693   940  1
 1060   694   777  1
 1061   694   695  1
 1062   695   696  1
 1063   695   942  1
 1064   696   779  1
 1065   696   697  1
 1066   697   698  1
 1067   697   944  1
 1068   698   781  1
 1069   698   699  1
 1070   699   700  1
 1071   699   946  1
 1072   700   783  1
 1073   700   701  1
 1074   701   702  1
 1075   701   948  1
 1076   702   785  1
 1077   702   703  1
 1078   703   950  1
 1079   703   704  1
 1080   704   787  1
 1081   704   705  1
 1082   705   706  1
 1083   705   952  1
 1084   706   789  1
 1085   706   707  1
 1086   707   708  1
 1087   707   954  1
 1088   708   791  1
 1089   708   709  1
 1090   709   710  1
 1091   709   956  1
 1092   710   793  1
 1093   710   711  1
 1094   711   712  1
 1095   711   958  1
 1096   712   795  1
 1097   712   713  1
 1098   713   714  1
 1099   713   960  1
 1100   714   797  1
 1101   714   715  1
 1102   715   716  1
 1103   715   962  1
 1104   716   799  1
 1105   716   717  1
 1106   717   718  1
 1107   717   964  1
 1108   718   801  1
 1109   718   719  1
 1110   719   720  1
 1111   719   966  1
 1112   720   803  1
 1113   720   721  1
 1114   721   722  1
 1115   721   968  1
 1116   722   805  1
 1117   722   723  1
 1118   723   724  1
 1119   723   970  1
 1120   724   807  1
 1121   724   725  1
 1122   725   726  1
 1123   725   972  1
 1124   726   809  1
 1125   726   727  1
 1126   727   728  1
 1127   727   974  1
 1128   728   811  1
 1129   728   729  1
 1130   729   976  1
 1131   729   730  1
 1132   730   813  1
 1133   730   731  1
 1134   731   732  1
 1135   731   978  1
 1136   732   815  1
 1137   732   733  1
 1138   733   734  1
 1139   733   980  1
 1140   734   817  1
 1141   734   735  1
 1142   735   736  1
 1143   735   982  1
 1144   736   819  1
 1145   736   737  1
 1146   737   738  1
 1147   737   984  1
 1148   738   739  1
 1149   739   820  1
 1150   739   740  1
 1151   740   741  1
 1152   741   742  1
 1153   742   743  1
 1154   743   744  1
 1155   744   745  1
 1156   745   746  1
 1157   746   747  1
 1158   747   748  1
 1159   748   749  1
 1160   749   750  1
 1161   750   751  1
 1162   751   752  1
 1163   752   753  1
 1164   753   754  1
 1165   754   755  1
 1166   755   756  1
 1167   756   757  1
 1168   757   758  1
 1169   758   759  1
 1170   759   760  1
 1171   760   761  1
 1172   761   762  1
 1173   762   763  1
 1174   763   764  1
 1175   764   765  1
 1176   765   766  1
 1177   766   767  1
 1178   767   768  1
 1179   768   769  1
 1180   769   770  1
 1181   770   771  1
 1182   771   772  1
 1183   772   773  1
 1184   773   774  1
 1185   774   775  1
 1186   775   776  1
 1187   776   777  1
 1188   777   778  1
 1189   778   779  1
 1190   779   780  1
 1191   780   781  1
 1192   781   782  1
 1193   782   783  1
 1194   783   784  1
 1195   784   785  1
 1196   785   786  1
 1197   786   787  1
 1198   787   788  1
 1199   788   789  1
 1200   789   790  1
 1201   790   791  1
 1202   791   792  1
 1203   792   793  1
 1204   793   794  1
 1205   794   795  1
 1206   795   796  1
 1207   796   797  1
 1208   797   798  1
 1209   798   799  1
 1210   799   800  1
 1211   800   801  1
 1212   801   802  1
 1213   802   803  1
 1214   803   804  1
 1215   804   805  1
 1216   805   806  1
 1217   806   807  1
 1218   807   808  1
 1219   808   809  1
 1220   809   810  1
 1221   810   811  1
 1222   811   812  1
 1223   812   813  1
 1224   813   814  1
 1225   814   815  1
 1226   815   816  1
 1227   816   817  1
 1228   817   818  1
 1229   818   819  1
 1230   819   820  1
 1231   821   902  1
 1232   821   822  1
 1233   821  1068  1
 1234   822   905  1
 1235   822   823  1
 1236   823   824  1
 1237   823  1070  1
 1238   824   907  1
 1239   824   825  1
 1240   825  1072  1
 1241   825   826  1
 1242   826   909  1
 1243   826   827  1
 1244   827   828  1
 1245   827  1074  1
 1246   828   911  1
 1247   828   829  1
 1248   829   830  1
 1249   829  1076  1
 1250   830   913  1
 1251   830   831  1
 1252   831  1078  1
 1253   831   832  1
 1254   832   915  1
 1255   832   833  1
 1256   833  1080  1
 1257   833   834  1
 1258   834   917  1
 1259   834   835  1
 1260   835  1082  1
 1261   835   836  1
 1262   836   919  1
 1263   836   837  1
 1264   837   838  1
 1265   837  1084  1
 1266   838   921  1
 1267   838   839  1
 1268   839   840  1
 1269   839  1086  1
 1270   840   841  1
 1271   840   923  1
 1272   841  1088  1
 1273   841   842  1
 1274   842   925  1
 1275   842   843  1
 1276   843  1090  1
 1277   843   844  1
 1278   844   927  1
 1279   844   845  1
 1280   845  1092  1
 1281   845   846  1
 1282   846   929  1
 1283   846   847  1
 1284   847  1094  1
 1285   847   848  1
 1286   848   931  1
 1287   848   849  1
 1288   849  1096  1
 1289   849   850  1
 1290   850   933  1
 1291   850   851  1
 1292   851  1098  1
 1293   851   852  1
 1294   852   935  1
 1295   852   853  1
 1296   853   854  1
 1297   853  1100  1
 1298   854   937  1
 1299   854   855  1
 1300   855   856  1
 1301   855  1102  1
 1302   856   939  1
 1303   856   857  1
 1304   857   858  1
 1305   857  1104  1
 1306   858   941  1
 1307   858   859  1
 1308   859   860  1
 1309   859  1106  1
 1310   860   943  1
 1311   860   861  1
 1312   861   862  1
 1313   861  1108  1
 1314   862   945  1
 1315   862   863  1
 1316   863   864  1
 1317   863  1110  1
 1318   864   947  1
 1319   864   865  1
 1320   865   866  1
 1321   865  1112  1
 1322   866   949  1
 1323   866   867  1
 1324   867  1114  1
 1325   867   868  1
 1326   868   951  1
 1327   868   869  1
 1328   869   870  1
 1329   869  1116  1
 1330   870   953  1
 1331   870   871  1
 1332   871   872  1
 1333   871  1118  1
 1334   872   955  1
 1335   872   873  1
 1336   873   874  1
 1337   873  1120  1
 1338   874   957  1
 1339   874   875  1
 1340   875   876  1
 1341   875  1122  1
 1342   876   959  1
 1343   876   877  1
 1344   877   878  1
 1345   877  1124  1
 1346   878   961  1
 1347   878   879  1
 1348   879   880  1
 1349   879  1126  1
 1350   880   963  1
 1351   880   881  1
 1352   881   882  1
 1353   881  1128  1
 1354   882   965  1
 1355   882   883  1
 1356   883   884  1
 1357   883  1130  1
 1358   884   967  1
 1359   884   885  1
 1360   885   886  1
 1361   885  1132  1
 1362   886   969  1
 1363   886   887  1
 1364   887   888  1
 1365   887  1134  1
 1366   888   971  1
 1367   888   889  1
 1368   889   890  1
 1369   889  1136  1
 1370   890   973  1
 1371   890   891  1
 1372   891   892  1
 1373   891  1138  1
 1374   892   975  1
 1375   892   893  1
 1376   893  1140  1
 1377   893   894  1
 1378   894   977  1
 1379   894   895  1
 1380   895   896  1
 1381   895  1142  1
 1382   896   979  1
 1383   896   897  1
 1384   897   898  1
 1385   897  1144  1
 1386   898   981  1
 1387   898   899  1
 1388   899   900  1
 1389   899  1146  1
 1390   900   983  1
 1391   900   901  1
 1392   901   902  1
 1393   901  1148  1
 1394   902   903  1
 1395   903   984  1
 1396   903   904  1
 1397   904   905  1
 1398   905   906  1
 1399   906   907  1
 1400   907   908  1
 1401   908   909  1
 1402   909   910  1
 1403   910   911  1
 1404   911   912  1
 1405   912   913  1
 1406   913   914  1
 1407   914   915  1
 1408   915   916  1
 1409   916   917  1
 1410   917   918  1
 1411   918   919  1
 1412   919   920  1
 1413   920   921  1
 1414   921   922  1
 1415   922   923  1
 1416   923   924  1
 1417   924   925  1
 1418   925   926  1
 1419   926   927  1
 1420   927   928  1
 1421   928   929  1
 1422   929   930  1
 1423   930   931  1
 1424   931   932  1
 1425   932   933  1
 1426   933   934  1
 1427   934   935  1
 1428   935   936  1
 1429   936   937  1
 1430   937   938  1
 1431   938   939  1
 1432   939   940  1
 1433   940   941  1
 1434   941   942  1
 1435   942   943  1
 1436   943   944  1
 1437   944   945  1
 1438   945   946  1
 1439   946   947  1
 1440   947   948  1
 1441   948   949  1
 1442   949   950  1
 1443   950   951  1
 1444   951   952  1
 1445   952   953  1
 1446   953   954  1
 1447   954   955  1
 1448   955   956  1
 1449   956   957  1
 1450   957   958  1
 1451   958   959  1
 1452   959   960  1
 1453   960   961  1
 1454   961   962  1
 1455   962   963  1
 1456   963   964  1
 1457   964   965  1
 1458   965   966  1
 1459   966   967  1
 1460   967   968  1
 1461   968   969  1
 1462   969   970  1
 1463   970   971  1
 1464   971   972  1
 1465   972   973  1
 1466   973   974  1
 1467   974   975  1
 1468   975   976  1
 1469   976   977  1
 1470   977   978  1
 1471   978   979  1
 1472   979   980  1
 1473   980   981  1
 1474   981   982  1
 1475   982   983  1
 1476   983   984  1
 1477   985  1066  1
 1478   985   986  1
 1479   985  1232  1
 1480   986  1069  1
 1481   986   987  1
 1482   987   988  1
 1483   987  1234  1
 1484   988  1071  1
 1485   988   989  1
 1486   989  1236  1
 1487   989   990  1
 1488   990  1073  1
 1489   990   991  1
 1490   991   992  1
 1491   991  1238  1
 1492   992  1075  1
 1493   992   993  1
 1494   993   994  1
 1495   993  1240  1
 1496   994  1077  1
 1497   994   995  1
 1498   995  1242  1
 1499   995   996  1
 1500   996  1079  1
 1501   996   997  1
 1502   997  1244  1
 1503   997   998  1
 1504   998  1081  1
 1505   998   999  1
 1506   999  1246  1
 1507   999  1000  1
 1508  1000  1083  1
 1509  1000  1001  1
 1510  1001  1002  1
 1511  1001  1248  1
 1512  1002  1085  1
 1513  1002  1003  1
 1514  1003  1004  1
 1515  1003  1250  1
 1516  1004  1005  1
 1517  1004  1087  1
 1518  1005  1252  1
 1519  1005  1006  1
 1520  1006  1089  1
 1521  1006  1007  1
 1522  1007  1254  1
 1523  1007  1008  1
 1524  1008  1091  1
 1525  1008  1009  1
 1526  1009  1256  1
 1527  1009  1010  1
 1528  1010  1093  1
 1529  1010  1011  1
 1530  1011  1258  1
 1531  1011  1012  1
 1532  1012  1095  1
 1533  1012  1013  1
 1534  1013  1260  1
 1535  1013  1014  1
 1536  1014  1097  1
 1537  1014  1015  1
 1538  1015  1262  1
 1539  1015  1016  1
 1540  1016  1099  1
 1541  1016  1017  1
 1542  1017  1018  1
 1543  1017  1264  1
 1544  1018  1101  1
 1545  1018  1019  1
 1546  1019  1020  1
 1547  1019  1266  1
 1548  1020  1103  1
 1549  1020  1021  1
 1550  1021  1022  1
 1551  1021  1268  1
 1552  1022  1105  1
 1553  1022  1023  1
 1554  1023  1024  1
 1555  1023  1270  1
 1556  1024  1107  1
 1557  1024  1025  1
 1558  1025  1026  1
 1559  1025  1272  1
 1560  1026  1109  1
 1561  1026  1027  1
 1562  1027  1028  1
 1563  1027  1274  1
 1564  1028  1111  1
 1565  1028  1029  1
 1566  1029  1030  1
 1567  1029  1276  1
 1568  1030  1113  1
 1569  1030  1031  1
 1570  1031  1278  1
 1571  1031  1032  1
 1572  1032  1115  1
 1573  1032  1033  1
 1574  1033  1034  1
 1575  1033  1280  1
 1576  1034  1117  1
 1577  1034  1035  1
 1578  1035  1036  1
 1579  1035  1282  1
 1580  1036  1119  1
 1581  1036  1037  1
 1582  1037  1038  1
 1583  1037  1284  1
 1584  1038  1121  1
 1585  1038  1039  1
 1586  1039  1040  1
 1587  1039  1286  1
 1588  1040  1123  1
 1589  1040  1041  1
 1590  1041  1042  1
 1591  1041  1288  1
 1592  1042  1125  1
 1593  1042  1043  1
 1594  1043  1044  1
 1595  1043  1290  1
 1596  1044  1127  1
 1597  1044  1045  1
 1598  1045  1046  1
 1599  1045  1292  1
 1600  1046  1129  1
 1601  1046  1047  1
 1602  1047  1048  1
 1603  1047  1294  1
 1604  1048  1131  1
 1605  1048  1049  1
 1606  1049  1050  1
 1607  1049  1296  1
 1608  1050  1133  1
 1609  1050  1051  1
 1610  1051  1052  1
 1611  1051  1298  1
 1612  1052  1135  1
 1613  1052  1053  1
 1614  1053  1054  1
 1615  1053  1300  1
 1616  1054  1137  1
 1617  1054  1055  1
 1618  1055  1056  1
 1619  1055  1302  1
 1620  1056  1139  1
 1621  1056  1057  1
 1622  1057  1304  1
 1623  1057  1058  1
 1624  1058  1141  1
 1625  1058  1059  1
 1626  1059  1060  1
 1627  1059  1306  1
 1628  1060  1143  1
 1629  1060  1061  1
 1630  1061  1062  1
 1631  1061  1308  1
 1632  1062  1145  1
 1633  1062  1063  1
 1634  1063  1064  1
 1635  1063  1310  1
 1636  1064  1147  1
 1637  1064  1065  1
 1638  1065  1066  1
 1639  1065  1312  1
 1640  1066  1067  1
 1641  1067  1148  1
 1642  1067  1068  1
 1643  1068  1069  1
 1644  1069  1070  1
 1645  1070  1071  1
 1646  1071  1072  1
 1647  1072  1073  1
 1648  1073  1074  1
 1649  1074  1075  1
 1650  1075  1076  1
 1651  1076  1077  1
 1652  1077  1078  1
 1653  1078  1079  1
 1654  1079  1080  1
 1655  1080  1081  1
 1656  1081  1082  1
 1657  1082  1083  1
 1658  1083  1084  1
 1659  1084  1085  1
 1660  1085  1086  1
 1661  1086  1087  1
 1662  1087  1088  1
 1663  1088  1089  1
 1664  1089  1090  1
 1665  1090  1091  1
 1666  1091  1092  1
 1667  1092  1093  1
 1668  1093  1094  1
 1669  1094  1095  1
 1670  1095  1096  1
 1671  1096  1097  1
 1672  1097  1098  1
 1673  1098  1099  1
 1674  1099  1100  1
 1675  1100  1101  1
 1676  1101  1102  1
 1677  1102  1103  1
 1678  1103  1104  1
 1679  1104  1105  1
 1680  1105  1106  1
 1681  1106  1107  1
 1682  1107  1108  1
 1683  1108  1109  1
 1684  1109  1110  1
 1685  1110  1111  1
 1686  1111  1112  1
 1687  1112  1113  1
 1688  1113  1114  1
 1689  1114  1115  1
 1690  1115  1116  1
 1691  1116  1117  1
 1692  1117  1118  1
 1693  1118  1119  1
 1694  1119  1120  1
 1695  1120  1121  1
 1696  1121  1122  1
 1697  1122  1123  1
 1698  1123  1124  1
 1699  1124  1125  1
 1700  1125  1126  1
 1701  1126  1127  1
 1702  1127  1128  1
 1703  1128  1129  1
 1704  1129  1130  1
 1705  1130  1131  1
 1706  1131  1132  1
 1707  1132  1133  1
 1708  1133  1134  1
 1709  1134  1135  1
 1710  1135  1136  1
 1711  1136  1137  1
 1712  1137  1138  1
 1713  1138  1139  1
 1714  1139  1140  1
 1715  1140  1141  1
 1716  1141  1142  1
 1717  1142  1143  1
 1718  1143  1144  1
 1719  1144  1145  1
 1720  1145  1146  1
 1721  1146  1147  1
 1722  1147  1148  1
 1723  1149  1230  1
 1724  1149  1150  1
 1725  1149  1396  1
 1726  1150  1233  1
 1727  1150  1151  1
 1728  1151  1152  1
 1729  1151  1398  1
 1730  1152  1235  1
 1731  1152  1153  1
 1732  1153  1400  1
 1733  1153  1154  1
 1734  1154  1237  1
 1735  1154  1155  1
 1736  1155  1156  1
 1737  1155  1402  1
 1738  1156  1239  1
 1739  1156  1157  1
 1740  1157  1158  1
 1741  1157  1404  1
 1742  1158  1241  1
 1743  1158  1159  1
 1744  1159  1406  1
 1745  1159  1160  1
 1746  1160  1243  1
 1747  1160  1161  1
 1748  1161  1408  1
 1749  1161  1162  1
 1750  1162  1245  1
 1751  1162  1163  1
 1752  1163  1410  1
 1753  1163  1164  1
 1754  1164  1247  1
 1755  1164  1165  1
 1756  1165  1166  1
 1757  1165  1412  1
 1758  1166  1249  1
 1759  1166  1167  1
 1760  1167  1168  1
 1761  1167  1414  1
 1762  1168  1169  1
 1763  1168  1251  1
 1764  1169  1416  1
 1765  1169  1170  1
 1766  1170  1253  1
 1767  1170  1171  1
 1768  1171  1418  1
 1769  1171  1172  1
 1770  1172  1255  1
 1771  1172  1173  1
 1772  1173  1420  1
 1773  1173  1174  1
 1774  1174  1257  1
 1775  1174  1175  1
 1776  1175  1422  1
 1777  1175  1176  1
 1778  1176  1259  1
 1779  1176  1177  1
 1780  1177  1424  1
 1781  1177  1178  1
 1782  1178  1261  1
 1783  1178  1179  1
 1784  1179  1426  1
 1785  1179  1180  1
 1786  1180  1263  1
 1787  1180  1181  1
 1788  1181  1182  1
 1789  1181  1428  1
 1790  1182  1265  1
 1791  1182  1183  1
 1792  1183  1184  1
 1793  1183  1430  1
 1794  1184  1267  1
 1795  1184  1185  1
 1796  1185  1186  1
 1797  1185  1432  1
 1798  1186  1269  1
 1799  1186  1187  1
 1800  1187  1188  1
 1801  1187  1434  1
 1802  1188  1271  1
 1803  1188  1189  1
 1804  1189  1190  1
 1805  1189  1436  1
 1806  1190  1273  1
 1807  1190  1191  1
 1808  1191  1192  1
 1809  1191  1438  1
 1810  1192  1275  1
 1811  1192  1193  1
 1812  1193  1194  1
 1813  1193  1440  1
 1814  1194  1277  1
 1815  1194  1195  1
 1816  1195  1442  1
 1817  1195  1196  1
 1818  1196  1279  1
 1819  1196  1197  1
 1820  1197  1198  1
 1821  1197  1444  1
 1822  1198  1281  1
 1823  1198  1199  1
 1824  1199  1200  1
 1825  1199  1446  1
 1826  1200  1283  1
 1827  1200  1201  1
 1828  1201  1202  1
 1829  1201  1448  1
 1830  1202  1285  1
 1831  1202  1203  1
 1832  1203  1204  1
 1833  1203  1450  1
 1834  1204  1287  1
 1835  1204  1205  1
 1836  1205  1206  1
 1837  1205  1452  1
 1838  1206  1289  1
 1839  1206  1207  1
 1840  1207  1208  1
 1841  1207  1454  1
 1842  1208  1291  1
 1843  1208  1209  1
 1844  1209  1210  1
 1845  1209  1456  1
 1846  1210  1293  1
 1847  1210  1211  1
 1848  1211  1212  1
 1849  1211  1458  1
 1850  1212  1295  1
 1851  1212  1213  1
 1852  1213  1214  1
 1853  1213  1460  1
 1854  1214  1297  1
 1855  1214  1215  1
 1856  1215  1216  1
 1857  1215  1462  1
 1858  1216  1299  1
 1859  1216  1217  1
 1860  1217  1218  1
 1861  1217  1464  1
 1862  1218  1301  1
 1863  1218  1219  1
 1864  1219  1220  1
 1865  1219  1466  1
 1866  1220  1303  1
 1867  1220  1221  1
 1868  1221  1468  1
 1869  1221  1222  1
 1870  1222  1305  1
 1871  1222  1223  1
 1872  1223  1224  1
 1873  1223  1470  1
 1874  1224  1307  1
 1875  1224  1225  1
 1876  1225  1226  1
 1877  1225  1472  1
 1878  1226  1309  1
 1879  1226  1227  1
 1880  1227  1228  1
 1881  1227  1474  1
 1882  1228  1311  1
 1883  1228  1229  1
 1884  1229  1230  1
 1885  1229  1476  1
 1886  1230  1231  1
 1887  1231  1312  1
 1888  1231  1232  1
 1889  1232  1233  1
 1890  1233  1234  1
 1891  1234  1235  1
 1892  1235  1236  1
 1893  1236  1237  1
 1894  1237  1238  1
 1895  1238  1239  1
 1896  1239  1240  1
 1897  1240  1241  1
 1898  1241  1242  1
 1899  1242  1243  1
 1900  1243  1244  1
 1901  1244  1245  1
 1902  1245  1246  1
 1903  1246  1247  1
 1904  1247  1248  1
 1905  1248  1249  1
 1906  1249  1250  1
 1907  1250  1251  1
 1908  1251  1252  1
 1909  1252  1253  1
 1910  1253  1254  1
 1911  1254  1255  1
 1912  1255  1256  1
 1913  1256  1257  1
 1914  1257  1258  1
 1915  1258  1259  1
 1916  1259  1260  1
 1917  1260  1261  1
 1918  1261  1262  1
 1919  1262  1263  1
 1920  1263  1264  1
 1921  1264  1265  1
 1922  1265  1266  1
 1923  1266  1267  1
 1924  1267  1268  1
 1925  1268  1269  1
 1926  1269  1270  1
 1927  1270  1271  1
 1928  1271  1272  1
 1929  1272  1273  1
 1930  1273  1274  1
 1931  1274  1275  1
 1932  1275  1276  1
 1933  1276  1277  1
 1934  1277  1278  1
 1935  1278  1279  1
 1936  1279  1280  1
 1937  1280  1281  1
 1938  1281  1282  1
 1939  1282  1283  1
 1940  1283  1284  1
 1941  1284  1285  1
 1942  1285  1286  1
 1943  1286  1287  1
 1944  1287  1288  1
 1945  1288  1289  1
 1946  1289  1290  1
 1947  1290  1291  1
 1948  1291  1292  1
 1949  1292  1293  1
 1950  1293  1294  1
 1951  1294  1295  1
 1952  1295  1296  1
 1953  1296  1297  1
 1954  1297  1298  1
 1955  1298  1299  1
 1956  1299  1300  1
 1957  1300  1301  1
 1958  1301  1302  1
 1959  1302  1303  1
 1960  1303  1304  1
 1961  1304  1305  1
 1962  1305  1306  1
 1963  1306  1307  1
 1964  1307  1308  1
 1965  1308  1309  1
 1966  1309  1310  1
 1967  1310  1311  1
 1968  1311  1312  1
 1969  1313  1394  1
 1970  1313  1314  1
 1971  1313  1560  1
 1972  1314  1397  1
 1973  1314  1315  1
 1974  1315  1316  1
 1975  1315  1562  1
 1976  1316  1399  1
 1977  1316  1317  1
 1978  1317  1564  1
 1979  1317  1318  1
 1980  1318  1401  1
 1981  1318  1319  1
 1982  1319  1320  1
 1983  1319  1566  1
 1984  1320  1403  1
 1985  1320  1321  1
 1986  1321  1322  1
 1987  1321  1568  1
 1988  1322  1405  1
 1989  1322  1323  1
 1990  1323  1570  1
 1991  1323  1324  1
 1992  1324  1407  1
 1993  1324  1325  1
 1994  1325  1572  1
 1995  1325  1326  1
 1996  1326  1409  1
 1997  1326  1327  1
 1998  1327  1574  1
 1999  1327  1328  1
 2000  1328  1411  1
 2001  1328  1329  1
 2002  1329  1330  1
 2003  1329  1576  1
 2004  1330  1413  1
 2005  1330  1331  1
 2006  1331  1332  1
 2007  1331  1578  1
 2008  1332  1415  1
 2009  1332  1333  1
 2010  1333  1580  1
 2011  1333  1334  1
 2012  1334  1417  1
 2013  1334  1335  1
 2014  1335  1582  1
 2015  1335  1336  1
 2016  1336  1419  1
 2017  1336  1337  1
 2018  1337  1584  1
 2019  1337  1338  1
 2020  1338  1421  1
 2021  1338  1339  1
 2022  1339  1586  1
 2023  1339  1340  1
 2024  1340  1423  1
 2025  1340  1341  1
 2026  1341  1588  1
 2027  1341  1342  1
 2028  1342  1425  1
 2029  1342  1343  1
 2030  1343  1590  1
 2031  1343  1344  1
 2032  1344  1427  1
 2033  1344  1345  1
 2034  1345  1346  1
 2035  1345  1592  1
 2036  1346  1429  1
 2037  1346  1347  1
 2038  1347  1348  1
 2039  1347  1594  1
 2040  1348  1431  1
 2041  1348  1349  1
 2042  1349  1350  1
 2043  1349  1596  1
 2044  1350  1433  1
 2045  1350  1351  1
 2046  1351  1352  1
 2047  1351  1598  1
 2048  1352  1435  1
 2049  1352  1353  1
 2050  1353  1354  1
 2051  1353  1600  1
 2052  1354  1437  1
 2053  1354  1355  1
 2054  1355  1356  1
 2055  1355  1602  1
 2056  1356  1439  1
 2057  1356  1357  1
 2058  1357  1358  1
 2059  1357  1604  1
 2060  1358  1441  1
 2061  1358  1359  1
 2062  1359  1360  1
 2063  1359  1606  1
 2064  1360  1443  1
 2065  1360  1361  1
 2066  1361  1362  1
 2067  1361  1608  1
 2068  1362  1445  1
 2069  1362  1363  1
 2070  1363  1364  1
 2071  1363  1610  1
 2072  1364  1447  1
 2073  1364  1365  1
 2074  1365  1366  1
 2075  1365  1612  1
 2076  1366  1449  1
 2077  1366  1367  1
 2078  1367  1368  1
 2079  1367  1614  1
 2080  1368  1451  1
 2081  1368  1369  1
 2082  1369  1370  1
 2083  1369  1616  1
 2084  1370  1453  1
 2085  1370  1371  1
 2086  1371  1372  1
 2087  1371  1618  1
 2088  1372  1455  1
 2089  1372  1373  1
 2090  1373  1620  1
 2091  1373  1374  1
 2092  1374  1457  1
 2093  1374  1375  1
 2094  1375  1376  1
 2095  1375  1622  1
 2096  1376  1459  1
 2097  1376  1377  1
 2098  1377  1378  1
 2099  1377  1624  1
 2100  1378  1461  1
 2101  1378  1379  1
 2102  1379  1380  1
 2103  1379  1626  1
 2104  1380  1463  1
 2105  1380  1381  1
 2106  1381  1382  1
 2107  1381  1628  1
 2108  1382  1465  1
 2109  1382  1383  1
 2110  1383  1384  1
 2111  1383  1630  1
 2112  1384  1467  1
 2113  1384  1385  1
 2114  1385  1386  1
 2115  1385  1632  1
 2116  1386  1469  1
 2117  1386  1387  1
 2118  1387  1388  1
 2119  1387  1634  1
 2120  1388  1471  1
 2121  1388  1389  1
 2122  1389  1390  1
 2123  1389  1636  1
 2124  1390  1473  1
 2125  1390  1391  1
 2126  1391  1392  1
 2127  1391  1638  1
 2128  1392  1475  1
 2129  1392  1393  1
 2130  1393  1394  1
 2131  1393  1640  1
 2132  1394  1395  1
 2133  1395  1476  1
 2134  1395  1396  1
 2135  1396  1397  1
 2136  1397  1398  1
 2137  1398  1399  1
 2138  1399  1400  1
 2139  1400  1401  1
 2140  1401  1402  1
 2141  1402  1403  1
 2142  1403  1404  1
 2143  1404  1405  1
 2144  1405  1406  1
 2145  1406  1407  1
 2146  1407  1408  1
 2147  1408  1409  1
 2148  1409  1410  1
 2149  1410  1411  1
 2150  1411  1412  1
 2151  1412  1413  1
 2152  1413  1414  1
 2153  1414  1415  1
 2154  1415  1416  1
 2155  1416  1417  1
 2156  1417  1418  1
 2157  1418  1419  1
 2158  1419  1420  1
 2159  1420  1421  1
 2160  1421  1422  1
 2161  1422  1423  1
 2162  1423  1424  1
 2163  1424  1425  1
 2164  1425  1426  1
 2165  1426  1427  1
 2166  1427  1428  1
 2167  1428  1429  1
 2168  1429  1430  1
 2169  1430  1431  1
 2170  1431  1432  1
 2171  1432  1433  1
 2172  1433  1434  1
 2173  1434  1435  1
 2174  1435  1436  1
 2175  1436  1437  1
 2176  1437  1438  1
 2177  1438  1439  1
 2178  1439  1440  1
 2179  1440  1441  1
 2180  1441  1442  1
 2181  1442  1443  1
 2182  1443  1444  1
 2183  1444  1445  1
 2184  1445  1446  1
 2185  1446  1447  1
 2186  1447  1448  1
 2187  1448  1449  1
 2188  1449  1450  1
 2189  1450  1451  1
 2190  1451  1452  1
 2191  1452  1453  1
 2192  1453  1454  1
 2193  1454  1455  1
 2194  1455  1456  1
 2195  1456  1457  1
 2196  1457  1458  1
 2197  1458  1459  1
 2198  1459  1460  1
 2199  1460  1461  1
 2200  1461  1462  1
 2201  1462  1463  1
 2202  1463  1464  1
 2203  1464  1465  1
 2204  1465  1466  1
 2205  1466  1467  1
 2206  1467  1468  1
 2207  1468  1469  1
 2208  1469  1470  1
 2209  1470  1471  1
 2210  1471  1472  1
 2211  1472  1473  1
 2212  1473  1474  1
 2213  1474  1475  1
 2214  1475  1476  1
 2215  1477  1558  1
 2216  1477  1478  1
 2217  1477  1724  1
 2218  1478  1561  1
 2219  1478  1479  1
 2220  1479  1480  1
 2221  1479  1726  1
 2222  1480  1563  1
 2223  1480  1481  1
 2224  1481  1728  1
 2225  1481  1482  1
 2226  1482  1565  1
 2227  1482  1483  1
 2228  1483  1484  1
 2229  1483  1730  1
 2230  1484  1567  1
 2231  1484  1485  1
 2232  1485  1486  1
 2233  1485  1732  1
 2234  1486  1569  1
 2235  1486  1487  1
 2236  1487  1734  1
 2237  1487  1488  1
 2238  1488  1571  1
 2239  1488  1489  1
 2240  1489  1736  1
 2241  1489  1490  1
 2242  1490  1573  1
 2243  1490  1491  1
 2244  1491  1738  1
 2245  1491  1492  1
 2246  1492  1575  1
 2247  1492  1493  1
 2248  1493  1494  1
 2249  1493  1740  1
 2250  1494  1577  1
 2251  1494  1495  1
 2252  1495  1496  1
 2253  1495  1742  1
 2254  1496  1579  1
 2255  1496  1497  1
 2256  1497  1744  1
 2257  1497  1498  1
 2258  1498  1581  1
 2259  1498  1499  1
 2260  1499  1746  1
 2261  1499  1500  1
 2262  1500  1583  1
 2263  1500  1501  1
 2264  1501  1748  1
 2265  1501  1502  1
 2266  1502  1585  1
 2267  1502  1503  1
 2268  1503  1750  1
 2269  1503  1504  1
 2270  1504  1587  1
 2271  1504  1505  1
 2272  1505  1752  1
 2273  1505  1506  1
 2274  1506  1589  1
 2275  1506  1507  1
 2276  1507  1754  1
 2277  1507  1508  1
 2278  1508  1591  1
 2279  1508  1509  1
 2280  1509  1510  1
 2281  1509  1756  1
 2282  1510  1593  1
 2283  1510  1511  1
 2284  1511  1512  1
 2285  1511  1758  1
 2286  1512  1595  1
 2287  1512  1513  1
 2288  1513  1514  1
 2289  1513  1760  1
 2290  1514  1597  1
 2291  1514  1515  1
 2292  1515  1516  1
 2293  1515  1762  1
 2294  1516  1599  1
 2295  1516  1517  1
 2296  1517  1518  1
 2297  1517  1764  1
 2298  1518  1601  1
 2299  1518  1519  1
 2300  1519  1520  1
 2301  1519  1766  1
 2302  1520  1603  1
 2303  1520  1521  1
 2304  1521  1522  1
 2305  1521  1768  1
 2306  1522  1605  1
 2307  1522  1523  1
 2308  1523  1524  1
 2309  1523  1770  1
 2310  1524  1607  1
 2311  1524  1525  1
 2312  1525  1526  1
 2313  1525  1772  1
 2314  1526  1609  1
 2315  1526  1527  1
 2316  1527  1528  1
 2317  1527  1774  1
 2318  1528  1611  1
 2319  1528  1529  1
 2320  1529  1530  1
 2321  1529  1776  1
 2322  1530  1613  1
 2323  1530  1531  1
 2324  1531  1532  1
 2325  1531  1778  1
 2326  1532  1615  1
 2327  1532  1533  1
 2328  1533  1534  1
 2329  1533  1780  1
 2330  1534  1617  1
 2331  1534  1535  1
 2332  1535  1536  1
 2333  1535  1782  1
 2334  1536  1619  1
 2335  1536  1537  1
 2336  1537  1784  1
 2337  1537  1538  1
 2338  1538  1621  1
 2339  1538  1539  1
 2340  1539  1540  1
 2341  1539  1786  1
 2342  1540  1623  1
 2343  1540  1541  1
 2344  1541  1542  1
 2345  1541  1788  1
 2346  1542  1625  1
 2347  1542  1543  1
 2348  1543  1544  1
 2349  1543  1790  1
 2350  1544  1627  1
 2351  1544  1545  1
 2352  1545  1546  1
 2353  1545  1792  1
 2354  1546  1629  1
 2355  1546  1547  1
 2356  1547  1548  1
 2357  1547  1794  1
 2358  1548  1631  1
 2359  1548  1549  1
 2360  1549  1550  1
 2361  1549  1796  1
 2362  1550  1633  1
 2363  1550  1551  1
 2364  1551  1552  1
 2365  1551  1798  1
 2366  1552  1635  1
 2367  1552  1553  1
 2368  1553  1554  1
 2369  1553  1800  1
 2370  1554  1637  1
 2371  1554  1555  1
 2372  1555  1556  1
 2373  1555  1802  1
 2374  1556  1639  1
 2375  1556  1557  1
 2376  1557  1558  1
 2377  1557  1804  1
 2378  1558  1559  1
 2379  1559  1640  1
 2380  1559  1560  1
 2381  1560  1561  1
 2382  1561  1562  1
 2383  1562  1563  1
 2384  1563  1564  1
 2385  1564  1565  1
 2386  1565  1566  1
 2387  1566  1567  1
 2388  1567  1568  1
 2389  1568  1569  1
 2390  1569  1570  1
 2391  1570  1571  1
 2392  1571  1572  1
 2393  1572  1573  1
 2394  1573  1574  1
 2395  1574  1575  1
 2396  1575  1576  1
 2397  1576  1577  1
 2398  1577  1578  1
 2399  1578  1579  1
 2400  1579  1580  1
 2401  1580  1581  1
 2402  1581  1582  1
 2403  1582  1583  1
 2404  1583  1584  1
 2405  1584  1585  1
 2406  1585  1586  1
 2407  1586  1587  1
 2408  1587  1588  1
 2409  1588  1589  1
 2410  1589  1590  1
 2411  1590  1591  1
 2412  1591  1592  1
 2413  1592  1593  1
 2414  1593  1594  1
 2415  1594  1595  1
 2416  1595  1596  1
 2417  1596  1597  1
 2418  1597  1598  1
 2419  1598  1599  1
 2420  1599  1600  1
 2421  1600  1601  1
 2422  1601  1602  1
 2423  1602  1603  1
 2424  1603  1604  1
 2425  1604  1605  1
 2426  1605  1606  1
 2427  1606  1607  1
 2428  1607  1608  1
 2429  1608  1609  1
 2430  1609  1610  1
 2431  1610  1611  1
 2432  1611  1612  1
 2433  1612  1613  1
 2434  1613  1614  1
 2435  1614  1615  1
 2436  1615  1616  1
 2437  1616  1617  1
 2438  1617  1618  1
 2439  1618  1619  1
 2440  1619  1620  1
 2441  1620  1621  1
 2442  1621  1622  1
 2443  1622  1623  1
 2444  1623  1624  1
 2445  1624  1625  1
 2446  1625  1626  1
 2447  1626  1627  1
 2448  1627  1628  1
 2449  1628  1629  1
 2450  1629  1630  1
 2451  1630  1631  1
 2452  1631  1632  1
 2453  1632  1633  1
 2454  1633  1634  1
 2455  1634  1635  1
 2456  1635  1636  1
 2457  1636  1637  1
 2458  1637  1638  1
 2459  1638  1639  1
 2460  1639  1640  1
 2461  1641  1722  1
 2462  1641  1642  1
 2463  1641  1888  1
 2464  1642  1725  1
 2465  1642  1643  1
 2466  1643  1644  1
 2467  1643  1890  1
 2468  1644  1727  1
 2469  1644  1645  1
 2470  1645  1892  1
 2471  1645  1646  1
 2472  1646  1729  1
 2473  1646  1647  1
 2474  1647  1648  1
 2475  1647  1894  1
 2476  1648  1731  1
 2477  1648  1649  1
 2478  1649  1650  1
 2479  1649  1896  1
 2480  1650  1733  1
 2481  1650  1651  1
 2482  1651  1898  1
 2483  1651  1652  1
 2484  1652  1735  1
 2485  1652  1653  1
 2486  1653  1900  1
 2487  1653  1654  1
 2488  1654  1737  1
 2489  1654  1655  1
 2490  1655  1902  1
 2491  1655  1656  1
 2492  1656  1739  1
 2493  1656  1657  1
 2494  1657  1658  1
 2495  1657  1904  1
 2496  1658  1741  1
 2497  1658  1659  1
 2498  1659  1660  1
 2499  1659  1906  1
 2500  1660  1743  1
 2501  1660  1661  1
 2502  1661  1908  1
 2503  1661  1662  1
 2504  1662  1745  1
 2505  1662  1663  1
 2506  1663  1910  1
 2507  1663  1664  1
 2508  1664  1747  1
 2509  1664  1665  1
 2510  1665  1912  1
 2511  1665  1666  1
 2512  1666  1749  1
 2513  1666  1667  1
 2514  1667  1914  1
 2515  1667  1668  1
 2516  1668  1751  1
 2517  1668  1669  1
 2518  1669  1916  1
 2519  1669  1670  1
 2520  1670  1753  1
 2521  1670  1671  1
 2522  1671  1918  1
 2523  1671  1672  1
 2524  1672  1755  1
 2525  1672  1673  1
 2526  1673  1674  1
 2527  1673  1920  1
 2528  1674  1757  1
 2529  1674  1675  1
 2530  1675  1676  1
 2531  1675  1922  1
 2532  1676  1759  1
 2533  1676  1677  1
 2534  1677  1678  1
 2535  1677  1924  1
 2536  1678  1761  1
 2537  1678  1679  1
 2538  1679  1680  1
 2539  1679  1926  1
 2540  1680  1763  1
 2541  1680  1681  1
 2542  1681  1682  1
 2543  1681  1928  1
 2544  1682  1765  1
 2545  1682  1683  1
 2546  1683  1684  1
 2547  1683  1930  1
 2548  1684  1767  1
 2549  1684  1685  1
 2550  1685  1686  1
 2551  1685  1932  1
 2552  1686  1769  1
 2553  1686  1687  1
 2554  1687  1688  1
 2555  1687  1934  1
 2556  1688  1771  1
 2557  1688  1689  1
 2558  1689  1690  1
 2559  1689  1936  1
 2560  1690  1773  1
 2561  1690  1691  1
 2562  1691  1692  1
 2563  1691  1938  1
 2564  1692  1775  1
 2565  1692  1693  1
 2566  1693  1694  1
 2567  1693  1940  1
 2568  1694  1777  1
 2569  1694  1695  1
 2570  1695  1696  1
 2571  1695  1942  1
 2572  1696  1779  1
 2573  1696  1697  1
 2574  1697  1698  1
 2575  1697  1944  1
 2576  1698  1781  1
 2577  1698  1699  1
 2578  1699  1700  1
 2579  1699  1946  1
 2580  1700  1783  1
 2581  1700  1701  1
 2582  1701  1948  1
 2583  1701  1702  1
 2584  1702  1785  1
 2585  1702  1703  1
 2586  1703  1704  1
 2587  1703  1950  1
 2588  1704  1787  1
 2589  1704  1705  1
 2590  1705  1706  1
 2591  1705  1952  1
 2592  1706  1789  1
 2593  1706  1707  1
 2594  1707  1708  1
 2595  1707  1954  1
 2596  1708  1791  1
 2597  1708  1709  1
 2598  1709  1710  1
 2599  1709  1956  1
 2600  1710  1793  1
 2601  1710  1711  1
 2602  1711  1712  1
 2603  1711  1958  1
 2604  1712  1795  1
 2605  1712  1713  1
 2606  1713  1714  1
 2607  1713  1960  1
 2608  1714  1797  1
 2609  1714  1715  1
 2610  1715  1716  1
 2611  1715  1962  1
 2612  1716  1799  1
 2613  1716  1717  1
 2614  1717  1718  1
 2615  1717  1964  1
 2616  1718  1801  1
 2617  1718  1719  1
 2618  1719  1720  1
 2619  1719  1966  1
 2620  1720  1803  1
 2621  1720  1721  1
 2622  1721  1722  1
 2623  1721  1968  1
 2624  1722  1723  1
 2625  1723  1804  1
 2626  1723  1724  1
 2627  1724  1725  1
 2628  1725  1726  1
 2629  1726  1727  1
 2630  1727  1728  1
 2631  1728  1729  1
 2632  1729  1730  1
 2633  1730  1731  1
 2634  1731  1732  1
 2635  1732  1733  1
 2636  1733  1734  1
 2637  1734  1735  1
 2638  1735  1736  1
 2639  1736  1737  1
 2640  1737  1738  1
 2641  1738  1739  1
 2642  1739  1740  1
 2643  1740  1741  1
 2644  1741  1742  1
 2645  1742  1743  1
 2646  1743  1744  1
 2647  1744  1745  1
 2648  1745  1746  1
 2649  1746  1747  1
 2650  1747  1748  1
 2651  1748  1749  1
 2652  1749  1750  1
 2653  1750  1751  1
 2654  1751  1752  1
 2655  1752  1753  1
 2656  1753  1754  1
 2657  1754  1755  1
 2658  1755  1756  1
 2659  1756  1757  1
 2660  1757  1758  1
 2661  1758  1759  1
 2662  1759  1760  1
 2663  1760  1761  1
 2664  1761  1762  1
 2665  1762  1763  1
 2666  1763  1764  1
 2667  1764  1765  1
 2668  1765  1766  1
 2669  1766  1767  1
 2670  1767  1768  1
 2671  1768  1769  1
 2672  1769  1770  1
 2673  1770  1771  1
 2674  1771  1772  1
 2675  1772  1773  1
 2676  1773  1774  1
 2677  1774  1775  1
 2678  1775  1776  1
 2679  1776  1777  1
 2680  1777  1778  1
 2681  1778  1779  1
 2682  1779  1780  1
 2683  1780  1781  1
 2684  1781  1782  1
 2685  1782  1783  1
 2686  1783  1784  1
 2687  1784  1785  1
 2688  1785  1786  1
 2689  1786  1787  1
 2690  1787  1788  1
 2691  1788  1789  1
 2692  1789  1790  1
 2693  1790  1791  1
 2694  1791  1792  1
 2695  1792  1793  1
 2696  1793  1794  1
 2697  1794  1795  1
 2698  1795  1796  1
 2699  1796  1797  1
 2700  1797  1798  1
 2701  1798  1799  1
 2702  1799  1800  1
 2703  1800  1801  1
 2704  1801  1802  1
 2705  1802  1803  1
 2706  1803  1804  1
 2707  1805  1886  1
 2708  1805  1806  1
 2709  1805  2052  1
 2710  1806  1889  1
 2711  1806  1807  1
 2712  1807  1808  1
 2713  1807  2054  1
 2714  1808  1891  1
 2715  1808  1809  1
 2716  1809  2056  1
 2717  1809  1810  1
 2718  1810  1893  1
 2719  1810  1811  1
 2720  1811  1812  1
 2721  1811  2058  1
 2722  1812  1895  1
 2723  1812  1813  1
 2724  1813  1814  1
 2725  1813  2060  1
 2726  1814  1897  1
 2727  1814  1815  1
 2728  1815  2062  1
 2729  1815  1816  1
 2730  1816  1899  1
 2731  1816  1817  1
 2732  1817  2064  1
 2733  1817  1818  1
 2734  1818  1901  1
 2735  1818  1819  1
 2736  1819  2066  1
 2737  1819  1820  1
 2738  1820  1903  1
 2739  1820  1821  1
 2740  1821  1822  1
 2741  1821  2068  1
 2742  1822  1905  1
 2743  1822  1823  1
 2744  1823  1824  1
 2745  1823  2070  1
 2746  1824  1907  1
 2747  1824  1825  1
 2748  1825  2072  1
 2749  1825  1826  1
 2750  1826  1909  1
 2751  1826  1827  1
 2752  1827  2074  1
 2753  1827  1828  1
 2754  1828  1911  1
 2755  1828  1829  1
 2756  1829  2076  1
 2757  1829  1830  1
 2758  1830  1913  1
 2759  1830  1831  1
 2760  1831  2078  1
 2761  1831  1832  1
 2762  1832  1915  1
 2763  1832  1833  1
 2764  1833  2080  1
 2765  1833  1834  1
 2766  1834  1917  1
 2767  1834  1835  1
 2768  1835  2082  1
 2769  1835  1836  1
 2770  1836  1919  1
 2771  1836  1837  1
 2772  1837  1838  1
 2773  1837  2084  1
 2774  1838  1921  1
 2775  1838  1839  1
 2776  1839  1840  1
 2777  1839  2086  1
 2778  1840  1923  1
 2779  1840  1841  1
 2780  1841  1842  1
 2781  1841  2088  1
 2782  1842  1925  1
 2783  1842  1843  1
 2784  1843  1844  1
 2785  1843  2090  1
 2786  1844  1927  1
 2787  1844  1845  1
 2788  1845  1846  1
 2789  1845  2092  1
 2790  1846  1929  1
 2791  1846  1847  1
 2792  1847  1848  1
 2793  1847  2094  1
 2794  1848  1931  1
 2795  1848  1849  1
 2796  1849  1850  1
 2797  1849  2096  1
 2798  1850  1933  1
 2799  1850  1851  1
 2800  1851  1852  1
 2801  1851  2098  1
 2802  1852  1935  1
 2803  1852  1853  1
 2804  1853  1854  1
 2805  1853  2100  1
 2806  1854  1937  1
 2807  1854  1855  1
 2808  1855  1856  1
 2809  1855  2102  1
 2810  1856  1939  1
 2811  1856  1857  1
 2812  1857  1858  1
 2813  1857  2104  1
 2814  1858  1941  1
 2815  1858  1859  1
 2816  1859  1860  1
 2817  1859  2106  1
 2818  1860  1943  1
 2819  1860  1861  1
 2820  1861  1862  1
 2821  1861  2108  1
 2822  1862  1945  1
 2823  1862  1863  1
 2824  1863  1864  1
 2825  1863  2110  1
 2826  1864  1947  1
 2827  1864  1865  1
 2828  1865  2112  1
 2829  1865  1866  1
 2830  1866  1949  1
 2831  1866  1867  1
 2832  1867  1868  1
 2833  1867  2114  1
 2834  1868  1951  1
 2835  1868  1869  1
 2836  1869  1870  1
 2837  1869  2116  1
 2838  1870  1953  1
 2839  1870  1871  1
 2840  1871  1872  1
 2841  1871  2118  1
 2842  1872  1955  1
 2843  1872  1873  1
 2844  1873  1874  1
 2845  1873  2120  1
 2846  1874  1957  1
 2847  1874  1875  1
 2848  1875  1876  1
 2849  1875  2122  1
 2850  1876  1959  1
 2851  1876  1877  1
 2852  1877  1878  1
 2853  1877  2124  1
 2854  1878  1961  1
 2855  1878  1879  1
 2856  1879  1880  1
 2857  1879  2126  1
 2858  1880  1963  1
 2859  1880  1881  1
 2860  1881  1882  1
 2861  1881  2128  1
 2862  1882  1965  1
 2863  1882  1883  1
 2864  1883  1884  1
 2865  1883  2130  1
 2866  1884  1967  1
 2867  1884  1885  1
 2868  1885  1886  1
 2869  1885  2132  1
 2870  1886  1887  1
 2871  1887  1968  1
 2872  1887  1888  1
 2873  1888  1889  1
 2874  1889  1890  1
 2875  1890  1891  1
 2876  1891  1892  1
 2877  1892  1893  1
 2878  1893  1894  1
 2879  1894  1895  1
 2880  1895  1896  1
 2881  1896  1897  1
 2882  1897  1898  1
 2883  1898  1899  1
 2884  1899  1900  1
 2885  1900  1901  1
 2886  1901  1902  1
 2887  1902  1903  1
 2888  1903  1904  1
 2889  1904  1905  1
 2890  1905  1906  1
 2891  1906  1907  1
 2892  1907  1908  1
 2893  1908  1909  1
 2894  1909  1910  1
 2895  1910  1911  1
 2896  1911  1912  1
 2897  1912  1913  1
 2898  1913  1914  1
 2899  1914  1915  1
 2900  1915  1916  1
 2901  1916  1917  1
 2902  1917  1918  1
 2903  1918  1919  1
 2904  1919  1920  1
 2905  1920  1921  1
 2906  1921  1922  1
 2907  1922  1923  1
 2908  1923  1924  1
 2909  1924  1925  1
 2910  1925  1926  1
 2911  1926  1927  1
 2912  1927  1928  1
 2913  1928  1929  1
 2914  1929  1930  1
 2915  1930  1931  1
 2916  1931  1932  1
 2917  1932  1933  1
 2918  1933  1934  1
 2919  1934  1935  1
 2920  1935  1936  1
 2921  1936  1937  1
 2922  1937  1938  1
 2923  1938  1939  1
 2924  1939  1940  1
 2925  1940  1941  1
 2926  1941  1942  1
 2927  1942  1943  1
 2928  1943  1944  1
 2929  1944  1945  1
 2930  1945  1946  1
 2931  1946  1947  1
 2932  1947  1948  1
 2933  1948  1949  1
 2934  1949  1950  1
 2935  1950  1951  1
 2936  1951  1952  1
 2937  1952  1953  1
 2938  1953  1954  1
 2939  1954  1955  1
 2940  1955  1956  1
 2941  1956  1957  1
 2942  1957  1958  1
 2943  1958  1959  1
 2944  1959  1960  1
 2945  1960  1961  1
 2946  1961  1962  1
 2947  1962  1963  1
 2948  1963  1964  1
 2949  1964  1965  1
 2950  1965  1966  1
 2951  1966  1967  1
 2952  1967  1968  1
 2953  1969  2050  1
 2954  1969  1970  1
 2955  1969  2216  1
 2956  1970  2053  1
 2957  1970  1971  1
 2958  1971  1972  1
 2959  1971  2218  1
 2960  1972  2055  1
 2961  1972  1973  1
 2962  1973  2220  1
 2963  1973  1974  1
 2964  1974  2057  1
 2965  1974  1975  1
 2966  1975  1976  1
 2967  1975  2222  1
 2968  1976  2059  1
 2969  1976  1977  1
 2970  1977  1978  1
 2971  1977  2224  1
 2972  1978  2061  1
 2973  1978  1979  1
 2974  1979  2226  1
 2975  1979  1980  1
 2976  1980  2063  1
 2977  1980  1981  1
 2978  1981  2228  1
 2979  1981  1982  1
 2980  1982  2065  1
 2981  1982  1983  1
 2982  1983  2230  1
 2983  1983  1984  1
 2984  1984  2067  1
 2985  1984  1985  1
 2986  1985  1986  1
 2987  1985  2232  1
 2988  1986  2069  1
 2989  1986  1987  1
 2990  1987  1988  1
 2991  1987  2234  1
 2992  1988  1989  1
 2993  1988  2071  1
 2994  1989  2236  1
 2995  1989  1990  1
 2996  1990  2073  1
 2997  1990  1991  1
 2998  1991  2238  1
 2999  1991  1992  1
 3000  1992  2075  1
 3001  1992  1993  1
 3002  1993  2240  1
 3003  1993  1994  1
 3004  1994  2077  1
 3005  1994  1995  1
 3006  1995  2242  1
 3007  1995  1996  1
 3008  1996  2079  1
 3009  1996  1997  1
 3010  1997  2244  1
 3011  1997  1998  1
 3012  1998  2081  1
 3013  1998  1999  1
 3014  1999  2246  1
 3015  1999  2000  1
 3016  2000  2083  1
 3017  2000  2001  1
 3018  2001  2002  1
 3019  2001  2248  1
 3020  2002  2085  1
 3021  2002  2003  1
 3022  2003  2004  1
 3023  2003  2250  1
 3024  2004  2087  1
 3025  2004  2005  1
 3026  2005  2006  1
 3027  2005  2252  1
 3028  2006  2089  1
 3029  2006  2007  1
 3030  2007  2008  1
 3031  2007  2254  1
 3032  2008  2091  1
 3033  2008  2009  1
 3034  2009  2010  1
 3035  2009  2256  1
 3036  2010  2093  1
 3037  2010  2011  1
 3038  2011  2012  1
 3039  2011  2258  1
 3040  2012  2095  1
 3041  2012  2013  1
 3042  2013  2014  1
 3043  2013  2260  1
 3044  2014  2097  1
 3045  2014  2015  1
 3046  2015  2262  1
 3047  2015  2016  1
 3048  2016  2099  1
 3049  2016  2017  1
 3050  2017  2018  1
 3051  2017  2264  1
 3052  2018  2101  1
 3053  2018  2019  1
 3054  2019  2020  1
 3055  2019  2266  1
 3056  2020  2103  1
 3057  2020  2021  1
 3058  2021  2022  1
 3059  2021  2268  1
 3060  2022  2105  1
 3061  2022  2023  1
 3062  2023  2024  1
 3063  2023  2270  1
 3064  2024  2107  1
 3065  2024  2025  1
 3066  2025  2026  1
 3067  2025  2272  1
 3068  2026  2109  1
 3069  2026  2027  1
 3070  2027  2028  1
 3071  2027  2274  1
 3072  2028  2111  1
 3073  2028  2029  1
 3074  2029  2030  1
 3075  2029  2276  1
 3076  2030  2113  1
 3077  2030  2031  1
 3078  2031  2032  1
 3079  2031  2278  1
 3080  2032  2115  1
 3081  2032  2033  1
 3082  2033  2034  1
 3083  2033  2280  1
 3084  2034  2117  1
 3085  2034  2035  1
 3086  2035  2036  1
 3087  2035  2282  1
 3088  2036  2119  1
 3089  2036  2037  1
 3090  2037  2038  1
 3091  2037  2284  1
 3092  2038  2121  1
 3093  2038  2039  1
 3094  2039  2040  1
 3095  2039  2286  1
 3096  2040  2123  1
 3097  2040  2041  1
 3098  2041  2288  1
 3099  2041  2042  1
 3100  2042  2125  1
 3101  2042  2043  1
 3102  2043  2044  1
 3103  2043  2290  1
 3104  2044  2127  1
 3105  2044  2045  1
 3106  2045  2046  1
 3107  2045  2292  1
 3108  2046  2129  1
 3109  2046  2047  1
 3110  2047  2048  1
 3111  2047  2294  1
 3112  2048  2131  1
 3113  2048  2049  1
 3114  2049  2050  1
 3115  2049  2296  1
 3116  2050  2051  1
 3117  2051  2132  1
 3118  2051  2052  1
 3119  2052  2053  1
 3120  2053  2054  1
 3121  2054  2055  1
 3122  2055  2056  1
 3123  2056  2057  1
 3124  2057  2058  1
 3125  2058  2059  1
 3126  2059  2060  1
 3127  2060  2061  1
 3128  2061  2062  1
 3129  2062  2063  1
 3130  2063  2064  1
 3131  2064  2065  1
 3132  2065  2066  1
 3133  2066  2067  1
 3134  2067  2068  1
 3135  2068  2069  1
 3136  2069  2070  1
 3137  2070  2071  1
 3138  2071  2072  1
 3139  2072  2073  1
 3140  2073  2074  1
 3141  2074  2075  1
 3142  2075  2076  1
 3143  2076  2077  1
 3144  2077  2078  1
 3145  2078  2079  1
 3146  2079  2080  1
 3147  2080  2081  1
 3148  2081  2082  1
 3149  2082  2083  1
 3150  2083  2084  1
 3151  2084  2085  1
 3152  2085  2086  1
 3153  2086  2087  1
 3154  2087  2088  1
 3155  2088  2089  1
 3156  2089  2090  1
 3157  2090  2091  1
 3158  2091  2092  1
 3159  2092  2093  1
 3160  2093  2094  1
 3161  2094  2095  1
 3162  2095  2096  1
 3163  2096  2097  1
 3164  2097  2098  1
 3165  2098  2099  1
 3166  2099  2100  1
 3167  2100  2101  1
 3168  2101  2102  1
 3169  2102  2103  1
 3170  2103  2104  1
 3171  2104  2105  1
 3172  2105  2106  1
 3173  2106  2107  1
 3174  2107  2108  1
 3175  2108  2109  1
 3176  2109  2110  1
 3177  2110  2111  1
 3178  2111  2112  1
 3179  2112  2113  1
 3180  2113  2114  1
 3181  2114  2115  1
 3182  2115  2116  1
 3183  2116  2117  1
 3184  2117  2118  1
 3185  2118  2119  1
 3186  2119  2120  1
 3187  2120  2121  1
 3188  2121  2122  1
 3189  2122  2123  1
 3190  2123  2124  1
 3191  2124  2125  1
 3192  2125  2126  1
 3193  2126  2127  1
 3194  2127  2128  1
 3195  2128  2129  1
 3196  2129  2130  1
 3197  2130  2131  1
 3198  2131  2132  1
 3199  2133  2214  1
 3200  2133  2134  1
 3201  2133  2380  1
 3202  2134  2217  1
 3203  2134  2135  1
 3204  2135  2136  1
 3205  2135  2382  1
 3206  2136  2219  1
 3207  2136  2137  1
 3208  2137  2384  1
 3209  2137  2138  1
 3210  2138  2221  1
 3211  2138  2139  1
 3212  2139  2140  1
 3213  2139  2386  1
 3214  2140  2223  1
 3215  2140  2141  1
 3216  2141  2142  1
 3217  2141  2388  1
 3218  2142  2225  1
 3219  2142  2143  1
 3220  2143  2390  1
 3221  2143  2144  1
 3222  2144  2227  1
 3223  2144  2145  1
 3224  2145  2392  1
 3225  2145  2146  1
 3226  2146  2229  1
 3227  2146  2147  1
 3228  2147  2394  1
 3229  2147  2148  1
 3230  2148  2231  1
 3231  2148  2149  1
 3232  2149  2150  1
 3233  2149  2396  1
 3234  2150  2233  1
 3235  2150  2151  1
 3236  2151  2152  1
 3237  2151  2398  1
 3238  2152  2153  1
 3239  2152  2235  1
 3240  2153  2400  1
 3241  2153  2154  1
 3242  2154  2237  1
 3243  2154  2155  1
 3244  2155  2402  1
 3245  2155  2156  1
 3246  2156  2239  1
 3247  2156  2157  1
 3248  2157  2404  1
 3249  2157  2158  1
 3250  2158  2241  1
 3251  2158  2159  1
 3252  2159  2406  1
 3253  2159  2160  1
 3254  2160  2243  1
 3255  2160  2161  1
 3256  2161  2408  1
 3257  2161  2162  1
 3258  2162  2245  1
 3259  2162  2163  1
 3260  2163  2410  1
 3261  2163  2164  1
 3262  2164  2247  1
 3263  2164  2165  1
 3264  2165  2166  1
 3265  2165  2412  1
 3266  2166  2249  1
 3267  2166  2167  1
 3268  2167  2168  1
 3269  2167  2414  1
 3270  2168  2251  1
 3271  2168  2169  1
 3272  2169  2170  1
 3273  2169  2416  1
 3274  2170  2253  1
 3275  2170  2171  1
 3276  2171  2172  1
 3277  2171  2418  1
 3278  2172  2255  1
 3279  2172  2173  1
 3280  2173  2174  1
 3281  2173  2420  1
 3282  2174  2257  1
 3283  2174  2175  1
 3284  2175  2176  1
 3285  2175  2422  1
 3286  2176  2259  1
 3287  2176  2177  1
 3288  2177  2178  1
 3289  2177  2424  1
 3290  2178  2261  1
 3291  2178  2179  1
 3292  2179  2426  1
 3293  2179  2180  1
 3294  2180  2263  1
 3295  2180  2181  1
 3296  2181  2182  1
 3297  2181  2428  1
 3298  2182  2265  1
 3299  2182  2183  1
 3300  2183  2184  1
 3301  2183  2430  1
 3302  2184  2267  1
 3303  2184  2185  1
 3304  2185  2186  1
 3305  2185  2432  1
 3306  2186  2269  1
 3307  2186  2187  1
 3308  2187  2188  1
 3309  2187  2434  1
 3310  2188  2271  1
 3311  2188  2189  1
 3312  2189  2190  1
 3313  2189  2436  1
 3314  2190  2273  1
 3315  2190  2191  1
 3316  2191  2192  1
 3317  2191  2438  1
 3318  2192  2275  1
 3319  2192  2193  1
 3320  2193  2194  1
 3321  2193  2440  1
 3322  2194  2277  1
 3323  2194  2195  1
 3324  2195  2196  1
 3325  2195  2442  1
 3326  2196  2279  1
 3327  2196  2197  1
 3328  2197  2198  1
 3329  2197  2444  1
 3330  2198  2281  1
 3331  2198  2199  1
 3332  2199  2200  1
 3333  2199  2446  1
 3334  2200  2283  1
 3335  2200  2201  1
 3336  2201  2202  1
 3337  2201  2448  1
 3338  2202  2285  1
 3339  2202  2203  1
 3340  2203  2204  1
 3341  2203  2450  1
 3342  2204  2287  1
 3343  2204  2205  1
 3344  2205  2452  1
 3345  2205  2206  1
 3346  2206  2289  1
 3347  2206  2207  1
 3348  2207  2208  1
 3349  2207  2454  1
 3350  2208  2291  1
 3351  2208  2209  1
 3352  2209  2210  1
 3353  2209  2456  1
 3354  2210  2293  1
 3355  2210  2211  1
 3356  2211  2212  1
 3357  2211  2458  1
 3358  2212  2295  1
 3359  2212  2213  1
 3360  2213  2214  1
 3361  2213  2460  1
 3362  2214  2215  1
 3363  2215  2296  1
 3364  2215  2216  1
 3365  2216  2217  1
 3366  2217  2218  1
 3367  2218  2219  1
 3368  2219  2220  1
 3369  2220  2221  1
 3370  2221  2222  1
 3371  2222  2223  1
 3372  2223  2224  1
 3373  2224  2225  1
 3374  2225  2226  1
 3375  2226  2227  1
 3376  2227  2228  1
 3377  2228  2229  1
 3378  2229  2230  1
 3379  2230  2231  1
 3380  2231  2232  1
 3381  2232  2233  1
 3382  2233  2234  1
 3383  2234  2235  1
 3384  2235  2236  1
 3385  2236  2237  1
 3386  2237  2238  1
 3387  2238  2239  1
 3388  2239  2240  1
 3389  2240  2241  1
 3390  2241  2242  1
 3391  2242  2243  1
 3392  2243  2244  1
 3393  2244  2245  1
 3394  2245  2246  1
 3395  2246  2247  1
 3396  2247  2248  1
 3397  2248  2249  1
 3398  2249  2250  1
 3399  2250  2251  1
 3400  2251  2252  1
 3401  2252  2253  1
 3402  2253  2254  1
 3403  2254  2255  1
 3404  2255  2256  1
 3405  2256  2257  1
 3406  2257  2258  1
 3407  2258  2259  1
 3408  2259  2260  1
 3409  2260  2261  1
 3410  2261  2262  1
 3411  2262  2263  1
 3412  2263  2264  1
 3413  2264  2265  1
 3414  2265  2266  1
 3415  2266  2267  1
 3416  2267  2268  1
 3417  2268  2269  1
 3418  2269  2270  1
 3419  2270  2271  1
 3420  2271  2272  1
 3421  2272  2273  1
 3422  2273  2274  1
 3423  2274  2275  1
 3424  2275  2276  1
 3425  2276  2277  1
 3426  2277  2278  1
 3427  2278  2279  1
 3428  2279  2280  1
 3429  2280  2281  1
 3430  2281  2282  1
 3431  2282  2283  1
 3432  2283  2284  1
 3433  2284  2285  1
 3434  2285  2286  1
 3435  2286  2287  1
 3436  2287  2288  1
 3437  2288  2289  1
 3438  2289  2290  1
 3439  2290  2291  1
 3440  2291  2292  1
 3441  2292  2293  1
 3442  2293  2294  1
 3443  2294  2295  1
 3444  2295  2296  1
 3445  2297  2378  1
 3446  2297  2298  1
 3447  2297  2544  1
 3448  2298  2381  1
 3449  2298  2299  1
 3450  2299  2300  1
 3451  2299  2546  1
 3452  2300  2383  1
 3453  2300  2301  1
 3454  2301  2548  1
 3455  2301  2302  1
 3456  2302  2385  1
 3457  2302  2303  1
 3458  2303  2304  1
 3459  2303  2550  1
 3460  2304  2387  1
 3461  2304  2305  1
 3462  2305  2306  1
 3463  2305  2552  1
 3464  2306  2389  1
 3465  2306  2307  1
 3466  2307  2554  1
 3467  2307  2308  1
 3468  2308  2391  1
 3469  2308  2309  1
 3470  2309  2556  1
 3471  2309  2310  1
 3472  2310  2393  1
 3473  2310  2311  1
 3474  2311  2558  1
 3475  2311  2312  1
 3476  2312  2395  1
 3477  2312  2313  1
 3478  2313  2314  1
 3479  2313  2560  1
 3480  2314  2397  1
 3481  2314  2315  1
 3482  2315  2316  1
 3483  2315  2562  1
 3484  2316  2317  1
 3485  2316  2399  1
 3486  2317  2564  1
 3487  2317  2318  1
 3488  2318  2401  1
 3489  2318  2319  1
 3490  2319  2566  1
 3491  2319  2320  1
 3492  2320  2403  1
 3493  2320  2321  1
 3494  2321  2568  1
 3495  2321  2322  1
 3496  2322  2405  1
 3497  2322  2323  1
 3498  2323  2570  1
 3499  2323  2324  1
 3500  2324  2407  1
 3501  2324  2325  1
 3502  2325  2572  1
 3503  2325  2326  1
 3504  2326  2409  1
 3505  2326  2327  1
 3506  2327  2574  1
 3507  2327  2328  1
 3508  2328  2411  1
 3509  2328  2329  1
 3510  2329  2330  1
 3511  2329  2576  1
 3512  2330  2413  1
 3513  2330  2331  1
 3514  2331  2332  1
 3515  2331  2578  1
 3516  2332  2415  1
 3517  2332  2333  1
 3518  2333  2334  1
 3519  2333  2580  1
 3520  2334  2417  1
 3521  2334  2335  1
 3522  2335  2336  1
 3523  2335  2582  1
 3524  2336  2419  1
 3525  2336  2337  1
 3526  2337  2338  1
 3527  2337  2584  1
 3528  2338  2421  1
 3529  2338  2339  1
 3530  2339  2340  1
 3531  2339  2586  1
 3532  2340  2423  1
 3533  2340  2341  1
 3534  2341  2342  1
 3535  2341  2588  1
 3536  2342  2425  1
 3537  2342  2343  1
 3538  2343  2590  1
 3539  2343  2344  1
 3540  2344  2427  1
 3541  2344  2345  1
 3542  2345  2346  1
 3543  2345  2592  1
 3544  2346  2429  1
 3545  2346  2347  1
 3546  2347  2348  1
 3547  2347  2594  1
 3548  2348  2431  1
 3549  2348  2349  1
 3550  2349  2350  1
 3551  2349  2596  1
 3552  2350  2433  1
 3553  2350  2351  1
 3554  2351  2352  1
 3555  2351  2598  1
 3556  2352  2435  1
 3557  2352  2353  1
 3558  2353  2354  1
 3559  2353  2600  1
 3560  2354  2437  1
 3561  2354  2355  1
 3562  2355  2356  1
 3563  2355  2602  1
 3564  2356  2439  1
 3565  2356  2357  1
 3566  2357  2358  1
 3567  2357  2604  1
 3568  2358  2441  1
 3569  2358  2359  1
 3570  2359  2360  1
 3571  2359  2606  1
 3572  2360  2443  1
 3573  2360  2361  1
 3574  2361  2362  1
 3575  2361  2608  1
 3576  2362  2445  1
 3577  2362  2363  1
 3578  2363  2364  1
 3579  2363  2610  1
 3580  2364  2447  1
 3581  2364  2365  1
 3582  2365  2366  1
 3583  2365  2612  1
 3584  2366  2449  1
 3585  2366  2367  1
 3586  2367  2368  1
 3587  2367  2614  1
 3588  2368  2451  1
 3589  2368  2369  1
 3590  2369  2616  1
 3591  2369  2370  1
 3592  2370  2453  1
 3593  2370  2371  1
 3594  2371  2372  1
 3595  2371  2618  1
 3596  2372  2455  1
 3597  2372  2373  1
 3598  2373  2374  1
 3599  2373  2620  1
 3600  2374  2457  1
 3601  2374  2375  1
 3602  2375  2376  1
 3603  2375  2622  1
 3604  2376  2459  1
 3605  2376  2377  1
 3606  2377  2378  1
 3607  2377  2624  1
 3608  2378  2379  1
 3609  2379  2460  1
 3610  2379  2380  1
 3611  2380  2381  1
 3612  2381  2382  1
 3613  2382  2383  1
 3614  2383  2384  1
 3615  2384  2385  1
 3616  2385  2386  1
 3617  2386  2387  1
 3618  2387  2388  1
 3619  2388  2389  1
 3620  2389  2390  1
 3621  2390  2391  1
 3622  2391  2392  1
 3623  2392  2393  1
 3624  2393  2394  1
 3625  2394  2395  1
 3626  2395  2396  1
 3627  2396  2397  1
 3628  2397  2398  1
 3629  2398  2399  1
 3630  2399  2400  1
 3631  2400  2401  1
 3632  2401  2402  1
 3633  2402  2403  1
 3634  2403  2404  1
 3635  2404  2405  1
 3636  2405  2406  1
 3637  2406  2407  1
 3638  2407  2408  1
 3639  2408  2409  1
 3640  2409  2410  1
 3641  2410  2411  1
 3642  2411  2412  1
 3643  2412  2413  1
 3644  2413  2414  1
 3645  2414  2415  1
 3646  2415  2416  1
 3647  2416  2417  1
 3648  2417  2418  1
 3649  2418  2419  1
 3650  2419  2420  1
 3651  2420  2421  1
 3652  2421  2422  1
 3653  2422  2423  1
 3654  2423  2424  1
 3655  2424  2425  1
 3656  2425  2426  1
 3657  2426  2427  1
 3658  2427  2428  1
 3659  2428  2429  1
 3660  2429  2430  1
 3661  2430  2431  1
 3662  2431  2432  1
 3663  2432  2433  1
 3664  2433  2434  1
 3665  2434  2435  1
 3666  2435  2436  1
 3667  2436  2437  1
 3668  2437  2438  1
 3669  2438  2439  1
 3670  2439  2440  1
 3671  2440  2441  1
 3672  2441  2442  1
 3673  2442  2443  1
 3674  2443  2444  1
 3675  2444  2445  1
 3676  2445  2446  1
 3677  2446  2447  1
 3678  2447  2448  1
 3679  2448  2449  1
 3680  2449  2450  1
 3681  2450  2451  1
 3682  2451  2452  1
 3683  2452  2453  1
 3684  2453  2454  1
 3685  2454  2455  1
 3686  2455  2456  1
 3687  2456  2457  1
 3688  2457  2458  1
 3689  2458  2459  1
 3690  2459  2460  1
 3691  2461  2542  1
 3692  2461  2462  1
 3693  2461  2708  1
 3694  2462  2545  1
 3695  2462  2463  1
 3696  2463  2464  1
 3697  2463  2710  1
 3698  2464  2547  1
 3699  2464  2465  1
 3700  2465  2712  1
 3701  2465  2466  1
 3702  2466  2549  1
 3703  2466  2467  1
 3704  2467  2468  1
 3705  2467  2714  1
 3706  2468  2551  1
 3707  2468  2469  1
 3708  2469  2470  1
 3709  2469  2716  1
 3710  2470  2553  1
 3711  2470  2471  1
 3712  2471  2718  1
 3713  2471  2472  1
 3714  2472  2555  1
 3715  2472  2473  1
 3716  2473  2720  1
 3717  2473  2474  1
 3718  2474  2557  1
 3719  2474  2475  1
 3720  2475  2722  1
 3721  2475  2476  1
 3722  2476  2559  1
 3723  2476  2477  1
 3724  2477  2478  1
 3725  2477  2724  1
 3726  2478  2561  1
 3727  2478  2479  1
 3728  2479  2480  1
 3729  2479  2726  1
 3730  2480  2481  1
 3731  2480  2563  1
 3732  2481  2728  1
 3733  2481  2482  1
 3734  2482  2565  1
 3735  2482  2483  1
 3736  2483  2730  1
 3737  2483  2484  1
 3738  2484  2567  1
 3739  2484  2485  1
 3740  2485  2732  1
 3741  2485  2486  1
 3742  2486  2569  1
 3743  2486  2487  1
 3744  2487  2734  1
 3745  2487  2488  1
 3746  2488  2571  1
 3747  2488  2489  1
 3748  2489  2736  1
 3749  2489  2490  1
 3750  2490  2573  1
 3751  2490  2491  1
 3752  2491  2738  1
 3753  2491  2492  1
 3754  2492  2575  1
 3755  2492  2493  1
 3756  2493  2494  1
 3757  2493  2740  1
 3758  2494  2577  1
 3759  2494  2495  1
 3760  2495  2496  1
 3761  2495  2742  1
 3762  2496  2579  1
 3763  2496  2497  1
 3764  2497  2498  1
 3765  2497  2744  1
 3766  2498  2581  1
 3767  2498  2499  1
 3768  2499  2500  1
 3769  2499  2746  1
 3770  2500  2583  1
 3771  2500  2501  1
 3772  2501  2502  1
 3773  2501  2748  1
 3774  2502  2585  1
 3775  2502  2503  1
 3776  2503  2504  1
 3777  2503  2750  1
 3778  2504  2587  1
 3779  2504  2505  1
 3780  2505  2506  1
 3781  2505  2752  1
 3782  2506  2589  1
 3783  2506  2507  1
 3784  2507  2754  1
 3785  2507  2508  1
 3786  2508  2591  1
 3787  2508  2509  1
 3788  2509  2510  1
 3789  2509  2756  1
 3790  2510  2593  1
 3791  2510  2511  1
 3792  2511  2512  1
 3793  2511  2758  1
 3794  2512  2595  1
 3795  2512  2513  1
 3796  2513  2514  1
 3797  2513  2760  1
 3798  2514  2597  1
 3799  2514  2515  1
 3800  2515  2516  1
 3801  2515  2762  1
 3802  2516  2599  1
 3803  2516  2517  1
 3804  2517  2518  1
 3805  2517  2764  1
 3806  2518  2601  1
 3807  2518  2519  1
 3808  2519  2520  1
 3809  2519  2766  1
 3810  2520  2603  1
 3811  2520  2521  1
 3812  2521  2522  1
 3813  2521  2768  1
 3814  2522  2605  1
 3815  2522  2523  1
 3816  2523  2524  1
 3817  2523  2770  1
 3818  2524  2607  1
 3819  2524  2525  1
 3820  2525  2526  1
 3821  2525  2772  1
 3822  2526  2609  1
 3823  2526  2527  1
 3824  2527  2528  1
 3825  2527  2774  1
 3826  2528  2611  1
 3827  2528  2529  1
 3828  2529  2530  1
 3829  2529  2776  1
 3830  2530  2613  1
 3831  2530  2531  1
 3832  2531  2532  1
 3833  2531  2778  1
 3834  2532  2615  1
 3835  2532  2533  1
 3836  2533  2780  1
 3837  2533  2534  1
 3838  2534  2617  1
 3839  2534  2535  1
 3840  2535  2536  1
 3841  2535  2782  1
 3842  2536  2619  1
 3843  2536  2537  1
 3844  2537  2538  1
 3845  2537  2784  1
 3846  2538  2621  1
 3847  2538  2539  1
 3848  2539  2540  1
 3849  2539  2786  1
 3850  2540  2623  1
 3851  2540  2541  1
 3852  2541  2542  1
 3853  2541  2788  1
 3854  2542  2543  1
 3855  2543  2624  1
 3856  2543  2544  1
 3857  2544  2545  1
 3858  2545  2546  1
 3859  2546  2547  1
 3860  2547  2548  1
 3861  2548  2549  1
 3862  2549  2550  1
 3863  2550  2551  1
 3864  2551  2552  1
 3865  2552  2553  1
 3866  2553  2554  1
 3867  2554  2555  1
 3868  2555  2556  1
 3869  2556  2557  1
 3870  2557  2558  1
 3871  2558  2559  1
 3872  2559  2560  1
 3873  2560  2561  1
 3874  2561  2562  1
 3875  2562  2563  1
 3876  2563  2564  1
 3877  2564  2565  1
 3878  2565  2566  1
 3879  2566  2567  1
 3880  2567  2568  1
 3881  2568  2569  1
 3882  2569  2570  1
 3883  2570  2571  1
 3884  2571  2572  1
 3885  2572  2573  1
 3886  2573  2574  1
 3887  2574  2575  1
 3888  2575  2576  1
 3889  2576  2577  1
 3890  2577  2578  1
 3891  2578  2579  1
 3892  2579  2580  1
 3893  2580  2581  1
 3894  2581  2582  1
 3895  2582  2583  1
 3896  2583  2584  1
 3897  2584  2585  1
 3898  2585  2586  1
 3899  2586  2587  1
 3900  2587  2588  1
 3901  2588  2589  1
 3902  2589  2590  1
 3903  2590  2591  1
 3904  2591  2592  1
 3905  2592  2593  1
 3906  2593  2594  1
 3907  2594  2595  1
 3908  2595  2596  1
 3909  2596  2597  1
 3910  2597  2598  1
 3911  2598  2599  1
 3912  2599  2600  1
 3913  2600  2601  1
 3914  2601  2602  1
 3915  2602  2603  1
 3916  2603  2604  1
 3917  2604  2605  1
 3918  2605  2606  1
 3919  2606  2607  1
 3920  2607  2608  1
 3921  2608  2609  1
 3922  2609  2610  1
 3923  2610  2611  1
 3924  2611  2612  1
 3925  2612  2613  1
 3926  2613  2614  1
 3927  2614  2615  1
 3928  2615  2616  1
 3929  2616  2617  1
 3930  2617  2618  1
 3931  2618  2619  1
 3932  2619  2620  1
 3933  2620  2621  1
 3934  2621  2622  1
 3935  2622  2623  1
 3936  2623  2624  1
 3937  2625  2706  1
 3938  2625  2626  1
 3939  2625  2872  1
 3940  2626  2709  1
 3941  2626  2627  1
 3942  2627  2628  1
 3943  2627  2874  1
 3944  2628  2711  1
 3945  2628  2629  1
 3946  2629  2876  1
 3947  2629  2630  1
 3948  2630  2713  1
 3949  2630  2631  1
 3950  2631  2632  1
 3951  2631  2878  1
 3952  2632  2715  1
 3953  2632  2633  1
 3954  2633  2634  1
 3955  2633  2880  1
 3956  2634  2717  1
 3957  2634  2635  1
 3958  2635  2882  1
 3959  2635  2636  1
 3960  2636  2719  1
 3961  2636  2637  1
 3962  2637  2884  1
 3963  2637  2638  1
 3964  2638  2721  1
 3965  2638  2639  1
 3966  2639  2886  1
 3967  2639  2640  1
 3968  2640  2723  1
 3969  2640  2641  1
 3970  2641  2642  1
 3971  2641  2888  1
 3972  2642  2725  1
 3973  2642  2643  1
 3974  2643  2644  1
 3975  2643  2890  1
 3976  2644  2645  1
 3977  2644  2727  1
 3978  2645  2892  1
 3979  2645  2646  1
 3980  2646  2729  1
 3981  2646  2647  1
 3982  2647  2894  1
 3983  2647  2648  1
 3984  2648  2731  1
 3985  2648  2649  1
 3986  2649  2896  1
 3987  2649  2650  1
 3988  2650  2733  1
 3989  2650  2651  1
 3990  2651  2898  1
 3991  2651  2652  1
 3992  2652  2735  1
 3993  2652  2653  1
 3994  2653  2900  1
 3995  2653  2654  1
 3996  2654  2737  1
 3997  2654  2655  1
 3998  2655  2902  1
 3999  2655  2656  1
 4000  2656  2739  1
 4001  2656  2657  1
 4002  2657  2658  1
 4003  2657  2904  1
 4004  2658  2741  1
 4005  2658  2659  1
 4006  2659  2660  1
 4007  2659  2906  1
 4008  2660  2743  1
 4009  2660  2661  1
 4010  2661  2662  1
 4011  2661  2908  1
 4012  2662  2745  1
 4013  2662  2663  1
 4014  2663  2664  1
 4015  2663  2910  1
 4016  2664  2747  1
 4017  2664  2665  1
 4018  2665  2666  1
 4019  2665  2912  1
 4020  2666  2749  1
 4021  2666  2667  1
 4022  2667  2668  1
 4023  2667  2914  1
 4024  2668  2751  1
 4025  2668  2669  1
 4026  2669  2670  1
 4027  2669  2916  1
 4028  2670  2753  1
 4029  2670  2671  1
 4030  2671  2918  1
 4031  2671  2672  1
 4032  2672  2755  1
 4033  2672  2673  1
 4034  2673  2674  1
 4035  2673  2920  1
 4036  2674  2757  1
 4037  2674  2675  1
 4038  2675  2676  1
 4039  2675  2922  1
 4040  2676  2759  1
 4041  2676  2677  1
 4042  2677  2678  1
 4043  2677  2924  1
 4044  2678  2761  1
 4045  2678  2679  1
 4046  2679  2680  1
 4047  2679  2926  1
 4048  2680  2763  1
 4049  2680  2681  1
 4050  2681  2682  1
 4051  2681  2928  1
 4052  2682  2765  1
 4053  2682  2683  1
 4054  2683  2684  1
 4055  2683  2930  1
 4056  2684  2767  1
 4057  2684  2685  1
 4058  2685  2686  1
 4059  2685  2932  1
 4060  2686  2769  1
 4061  2686  2687  1
 4062  2687  2688  1
 4063  2687  2934  1
 4064  2688  2771  1
 4065  2688  2689  1
 4066  2689  2690  1
 4067  2689  2936  1
 4068  2690  2773  1
 4069  2690  2691  1
 4070  2691  2692  1
 4071  2691  2938  1
 4072  2692  2775  1
 4073  2692  2693  1
 4074  2693  2694  1
 4075  2693  2940  1
 4076  2694  2777  1
 4077  2694  2695  1
 4078  2695  2696  1
 4079  2695  2942  1
 4080  2696  2779  1
 4081  2696  2697  1
 4082  2697  2944  1
 4083  2697  2698  1
 4084  2698  2781  1
 4085  2698  2699  1
 4086  2699  2700  1
 4087  2699  2946  1
 4088  2700  2783  1
 4089  2700  2701  1
 4090  2701  2702  1
 4091  2701  2948  1
 4092  2702  2785  1
 4093  2702  2703  1
 4094  2703  2704  1
 4095  2703  2950  1
 4096  2704  2787  1
 4097  2704  2705  1
 4098  2705  2706  1
 4099  2705  2952  1
 4100  2706  2707  1
 4101  2707  2788  1
 4102  2707  2708  1
 4103  2708  2709  1
 4104  2709  2710  1
 4105  2710  2711  1
 4106  2711  2712  1
 4107  2712  2713  1
 4108  2713  2714  1
 4109  2714  2715  1
 4110  2715  2716  1
 4111  2716  2717  1
 4112  2717  2718  1
 4113  2718  2719  1
 4114  2719  2720  1
 4115  2720  2721  1
 4116  2721  2722  1
 4117  2722  2723  1
 4118  2723  2724  1
 4119  2724  2725  1
 4120  2725  2726  1
 4121  2726  2727  1
 4122  2727  2728  1
 4123  2728  2729  1
 4124  2729  2730  1
 4125  2730  2731  1
 4126  2731  2732  1
 4127  2732  2733  1
 4128  2733  2734  1
 4129  2734  2735  1
 4130  2735  2736  1
 4131  2736  2737  1
 4132  2737  2738  1
 4133  2738  2739  1
 4134  2739  2740  1
 4135  2740  2741  1
 4136  2741  2742  1
 4137  2742  2743  1
 4138  2743  2744  1
 4139  2744  2745  1
 4140  2745  2746  1
 4141  2746  2747  1
 4142  2747  2748  1
 4143  2748  2749  1
 4144  2749  2750  1
 4145  2750  2751  1
 4146  2751  2752  1
 4147  2752  2753  1
 4148  2753  2754  1
 4149  2754  2755  1
 4150  2755  2756  1
 4151  2756  2757  1
 4152  2757  2758  1
 4153  2758  2759  1
 4154  2759  2760  1
 4155  2760  2761  1
 4156  2761  2762  1
 4157  2762  2763  1
 4158  2763  2764  1
 4159  2764  2765  1
 4160  2765  2766  1
 4161  2766  2767  1
 4162  2767  2768  1
 4163  2768  2769  1
 4164  2769  2770  1
 4165  2770  2771  1
 4166  2771  2772  1
 4167  2772  2773  1
 4168  2773  2774  1
 4169  2774  2775  1
 4170  2775  2776  1
 4171  2776  2777  1
 4172  2777  2778  1
 4173  2778  2779  1
 4174  2779  2780  1
 4175  2780  2781  1
 4176  2781  2782  1
 4177  2782  2783  1
 4178  2783  2784  1
 4179  2784  2785  1
 4180  2785  2786  1
 4181  2786  2787  1
 4182  2787  2788  1
 4183  2789  2870  1
 4184  2789  2790  1
 4185  2789  3036  1
 4186  2790  2873  1
 4187  2790  2791  1
 4188  2791  2792  1
 4189  2791  3038  1
 4190  2792  2875  1
 4191  2792  2793  1
 4192  2793  3040  1
 4193  2793  2794  1
 4194  2794  2877  1
 4195  2794  2795  1
 4196  2795  2796  1
 4197  2795  3042  1
 4198  2796  2879  1
 4199  2796  2797  1
 4200  2797  2798  1
 4201  2797  3044  1
 4202  2798  2881  1
 4203  2798  2799  1
 4204  2799  3046  1
 4205  2799  2800  1
 4206  2800  2883  1
 4207  2800  2801  1
 4208  2801  3048  1
 4209  2801  2802  1
 4210  2802  2885  1
 4211  2802  2803  1
 4212  2803  3050  1
 4213  2803  2804  1
 4214  2804  2887  1
 4215  2804  2805  1
 4216  2805  2806  1
 4217  2805  3052  1
 4218  2806  2889  1
 4219  2806  2807  1
 4220  2807  2808  1
 4221  2807  3054  1
 4222  2808  2809  1
 4223  2808  2891  1
 4224  2809  3056  1
 4225  2809  2810  1
 4226  2810  2893  1
 4227  2810  2811  1
 4228  2811  3058  1
 4229  2811  2812  1
 4230  2812  2895  1
 4231  2812  2813  1
 4232  2813  3060  1
 4233  2813  2814  1
 4234  2814  2897  1
 4235  2814  2815  1
 4236  2815  3062  1
 4237  2815  2816  1
 4238  2816  2899  1
 4239  2816  2817  1
 4240  2817  3064  1
 4241  2817  2818  1
 4242  2818  2901  1
 4243  2818  2819  1
 4244  2819  3066  1
 4245  2819  2820  1
 4246  2820  2903  1
 4247  2820  2821  1
 4248  2821  2822  1
 4249  2821  3068  1
 4250  2822  2905  1
 4251  2822  2823  1
 4252  2823  2824  1
 4253  2823  3070  1
 4254  2824  2907  1
 4255  2824  2825  1
 4256  2825  2826  1
 4257  2825  3072  1
 4258  2826  2909  1
 4259  2826  2827  1
 4260  2827  2828  1
 4261  2827  3074  1
 4262  2828  2911  1
 4263  2828  2829  1
 4264  2829  2830  1
 4265  2829  3076  1
 4266  2830  2913  1
 4267  2830  2831  1
 4268  2831  2832  1
 4269  2831  3078  1
 4270  2832  2915  1
 4271  2832  2833  1
 4272  2833  2834  1
 4273  2833  3080  1
 4274  2834  2917  1
 4275  2834  2835  1
 4276  2835  3082  1
 4277  2835  2836  1
 4278  2836  2919  1
 4279  2836  2837  1
 4280  2837  2838  1
 4281  2837  3084  1
 4282  2838  2921  1
 4283  2838  2839  1
 4284  2839  2840  1
 4285  2839  3086  1
 4286  2840  2923  1
 4287  2840  2841  1
 4288  2841  2842  1
 4289  2841  3088  1
 4290  2842  2925  1
 4291  2842  2843  1
 4292  2843  2844  1
 4293  2843  3090  1
 4294  2844  2927  1
 4295  2844  2845  1
 4296  2845  2846  1
 4297  2845  3092  1
 4298  2846  2929  1
 4299  2846  2847  1
 4300  2847  2848  1
 4301  2847  3094  1
 4302  2848  2931  1
 4303  2848  2849  1
 4304  2849  2850  1
 4305  2849  3096  1
 4306  2850  2933  1
 4307  2850  2851  1
 4308  2851  2852  1
 4309  2851  3098  1
 4310  2852  2935  1
 4311  2852  2853  1
 4312  2853  2854  1
 4313  2853  3100  1
 4314  2854  2937  1
 4315  2854  2855  1
 4316  2855  2856  1
 4317  2855  3102  1
 4318  2856  2939  1
 4319  2856  2857  1
 4320  2857  2858  1
 4321  2857  3104  1
 4322  2858  2941  1
 4323  2858  2859  1
 4324  2859  2860  1
 4325  2859  3106  1
 4326  2860  2943  1
 4327  2860  2861  1
 4328  2861  3108  1
 4329  2861  2862  1
 4330  2862  2945  1
 4331  2862  2863  1
 4332  2863  2864  1
 4333  2863  3110  1
 4334  2864  2947  1
 4335  2864  2865  1
 4336  2865  2866  1
 4337  2865  3112  1
 4338  2866  2949  1
 4339  2866  2867  1
 4340  2867  2868  1
 4341  2867  3114  1
 4342  2868  2951  1
 4343  2868  2869  1
 4344  2869  2870  1
 4345  2869  3116  1
 4346  2870  2871  1
 4347  2871  2952  1
 4348  2871  2872  1
 4349  2872  2873  1
 4350  2873  2874  1
 4351  2874  2875  1
 4352  2875  2876  1
 4353  2876  2877  1
 4354  2877  2878  1
 4355  2878  2879  1
 4356  2879  2880  1
 4357  2880  2881  1
 4358  2881  2882  1
 4359  2882  2883  1
 4360  2883  2884  1
 4361  2884  2885  1
 4362  2885  2886  1
 4363  2886  2887  1
 4364  2887  2888  1
 4365  2888  2889  1
 4366  2889  2890  1
 4367  2890  2891  1
 4368  2891  2892  1
 4369  2892  2893  1
 4370  2893  2894  1
 4371  2894  2895  1
 4372  2895  2896  1
 4373  2896  2897  1
 4374  2897  2898  1
 4375  2898  2899  1
 4376  2899  2900  1
 4377  2900  2901  1
 4378  2901  2902  1
 4379  2902  2903  1
 4380  2903  2904  1
 4381  2904  2905  1
 4382  2905  2906  1
 4383  2906  2907  1
 4384  2907  2908  1
 4385  2908  2909  1
 4386  2909  2910  1
 4387  2910  2911  1
 4388  2911  2912  1
 4389  2912  2913  1
 4390  2913  2914  1
 4391  2914  2915  1
 4392  2915  2916  1
 4393  2916  2917  1
 4394  2917  2918  1
 4395  2918  2919  1
 4396  2919  2920  1
 4397  2920  2921  1
 4398  2921  2922  1
 4399  2922  2923  1
 4400  2923  2924  1
 4401  2924  2925  1
 4402  2925  2926  1
 4403  2926  2927  1
 4404  2927  2928  1
 4405  2928  2929  1
 4406  2929  2930  1
 4407  2930  2931  1
 4408  2931  2932  1
 4409  2932  2933  1
 4410  2933  2934  1
 4411  2934  2935  1
 4412  2935  2936  1
 4413  2936  2937  1
 4414  2937  2938  1
 4415  2938  2939  1
 4416  2939  2940  1
 4417  2940  2941  1
 4418  2941  2942  1
 4419  2942  2943  1
 4420  2943  2944  1
 4421  2944  2945  1
 4422  2945  2946  1
 4423  2946  2947  1
 4424  2947  2948  1
 4425  2948  2949  1
 4426  2949  2950  1
 4427  2950  2951  1
 4428  2951  2952  1
 4429  2953  3034  1
 4430  2953  2954  1
 4431  2953  3200  1
 4432  2954  3037  1
 4433  2954  2955  1
 4434  2955  2956  1
 4435  2955  3202  1
 4436  2956  3039  1
 4437  2956  2957  1
 4438  2957  3204  1
 4439  2957  2958  1
 4440  2958  3041  1
 4441  2958  2959  1
 4442  2959  2960  1
 4443  2959  3206  1
 4444  2960  3043  1
 4445  2960  2961  1
 4446  2961  2962  1
 4447  2961  3208  1
 4448  2962  3045  1
 4449  2962  2963  1
 4450  2963  3210  1
 4451  2963  2964  1
 4452  2964  3047  1
 4453  2964  2965  1
 4454  2965  3212  1
 4455  2965  2966  1
 4456  2966  3049  1
 4457  2966  2967  1
 4458  2967  3214  1
 4459  2967  2968  1
 4460  2968  3051  1
 4461  2968  2969  1
 4462  2969  2970  1
 4463  2969  3216  1
 4464  2970  3053  1
 4465  2970  2971  1
 4466  2971  2972  1
 4467  2971  3218  1
 4468  2972  2973  1
 4469  2972  3055  1
 4470  2973  3220  1
 4471  2973  2974  1
 4472  2974  3057  1
 4473  2974  2975  1
 4474  2975  3222  1
 4475  2975  2976  1
 4476  2976  3059  1
 4477  2976  2977  1
 4478  2977  3224  1
 4479  2977  2978  1
 4480  2978  3061  1
 4481  2978  2979  1
 4482  2979  3226  1
 4483  2979  2980  1
 4484  2980  3063  1
 4485  2980  2981  1
 4486  2981  3228  1
 4487  2981  2982  1
 4488  2982  3065  1
 4489  2982  2983  1
 4490  2983  3230  1
 4491  2983  2984  1
 4492  2984  3067  1
 4493  2984  2985  1
 4494  2985  2986  1
 4495  2985  3232  1
 4496  2986  3069  1
 4497  2986  2987  1
 4498  2987  2988  1
 4499  2987  3234  1
 4500  2988  3071  1
 4501  2988  2989  1
 4502  2989  2990  1
 4503  2989  3236  1
 4504  2990  3073  1
 4505  2990  2991  1
 4506  2991  2992  1
 4507  2991  3238  1
 4508  2992  3075  1
 4509  2992  2993  1
 4510  2993  2994  1
 4511  2993  3240  1
 4512  2994  3077  1
 4513  2994  2995  1
 4514  2995  2996  1
 4515  2995  3242  1
 4516  2996  3079  1
 4517  2996  2997  1
 4518  2997  2998  1
 4519  2997  3244  1
 4520  2998  3081  1
 4521  2998  2999  1
 4522  2999  3246  1
 4523  2999  3000  1
 4524  3000  3083  1
 4525  3000  3001  1
 4526  3001  3002  1
 4527  3001  3248  1
 4528  3002  3085  1
 4529  3002  3003  1
 4530  3003  3004  1
 4531  3003  3250  1
 4532  3004  3087  1
 4533  3004  3005  1
 4534  3005  3006  1
 4535  3005  3252  1
 4536  3006  3089  1
 4537  3006  3007  1
 4538  3007  3008  1
 4539  3007  3254  1
 4540  3008  3091  1
 4541  3008  3009  1
 4542  3009  3010  1
 4543  3009  3256  1
 4544  3010  3093  1
 4545  3010  3011  1
 4546  3011  3012  1
 4547  3011  3258  1
 4548  3012  3095  1
 4549  3012  3013  1
 4550  3013  3014  1
 4551  3013  3260  1
 4552  3014  3097  1
 4553  3014  3015  1
 4554  3015  3016  1
 4555  3015  3262  1
 4556  3016  3099  1
 4557  3016  3017  1
 4558  3017  3018  1
 4559  3017  3264  1
 4560  3018  3101  1
 4561  3018  3019  1
 4562  3019  3020  1
 4563  3019  3266  1
 4564  3020  3103  1
 4565  3020  3021  1
 4566  3021  3022  1
 4567  3021  3268  1
 4568  3022  3105  1
 4569  3022  3023  1
 4570  3023  3024  1
 4571  3023  3270  1
 4572  3024  3107  1
 4573  3024  3025  1
 4574  3025  3272  1
 4575  3025  3026  1
 4576  3026  3109  1
 4577  3026  3027  1
 4578  3027  3028  1
 4579  3027  3274  1
 4580  3028  3111  1
 4581  3028  3029  1
 4582  3029  3030  1
 4583  3029  3276  1
 4584  3030  3113  1
 4585  3030  3031  1
 4586  3031  3032  1
 4587  3031  3278  1
 4588  3032  3115  1
 4589  3032  3033  1
 4590  3033  3034  1
 4591  3033  3280  1
 4592  3034  3035  1
 4593  3035  3116  1
 4594  3035  3036  1
 4595  3036  3037  1
 4596  3037  3038  1
 4597  3038  3039  1
 4598  3039  3040  1
 4599  3040  3041  1
 4600  3041  3042  1
 4601  3042  3043  1
 4602  3043  3044  1
 4603  3044  3045  1
 4604  3045  3046  1
 4605  3046  3047  1
 4606  3047  3048  1
 4607  3048  3049  1
 4608  3049  3050  1
 4609  3050  3051  1
 4610  3051  3052  1
 4611  3052  3053  1
 4612  3053  3054  1
 4613  3054  3055  1
 4614  3055  3056  1
 4615  3056  3057  1
 4616  3057  3058  1
 4617  3058  3059  1
 4618  3059  3060  1
 4619  3060  3061  1
 4620  3061  3062  1
 4621  3062  3063  1
 4622  3063  3064  1
 4623  3064  3065  1
 4624  3065  3066  1
 4625  3066  3067  1
 4626  3067  3068  1
 4627  3068  3069  1
 4628  3069  3070  1
 4629  3070  3071  1
 4630  3071  3072  1
 4631  3072  3073  1
 4632  3073  3074  1
 4633  3074  3075  1
 4634  3075  3076  1
 4635  3076  3077  1
 4636  3077  3078  1
 4637  3078  3079  1
 4638  3079  3080  1
 4639  3080  3081  1
 4640  3081  3082  1
 4641  3082  3083  1
 4642  3083  3084  1
 4643  3084  3085  1
 4644  3085  3086  1
 4645  3086  3087  1
 4646  3087  3088  1
 4647  3088  3089  1
 4648  3089  3090  1
 4649  3090  3091  1
 4650  3091  3092  1
 4651  3092  3093  1
 4652  3093  3094  1
 4653  3094  3095  1
 4654  3095  3096  1
 4655  3096  3097  1
 4656  3097  3098  1
 4657  3098  3099  1
 4658  3099  3100  1
 4659  3100  3101  1
 4660  3101  3102  1
 4661  3102  3103  1
 4662  3103  3104  1
 4663  3104  3105  1
 4664  3105  3106  1
 4665  3106  3107  1
 4666  3107  3108  1
 4667  3108  3109  1
 4668  3109  3110  1
 4669  3110  3111  1
 4670  3111  3112  1
 4671  3112  3113  1
 4672  3113  3114  1
 4673  3114  3115  1
 4674  3115  3116  1
 4675  3117  3198  1
 4676  3117  3118  1
 4677  3117  3364  1
 4678  3118  3201  1
 4679  3118  3119  1
 4680  3119  3120  1
 4681  3119  3366  1
 4682  3120  3203  1
 4683  3120  3121  1
 4684  3121  3368  1
 4685  3121  3122  1
 4686  3122  3205  1
 4687  3122  3123  1
 4688  3123  3124  1
 4689  3123  3370  1
 4690  3124  3207  1
 4691  3124  3125  1
 4692  3125  3126  1
 4693  3125  3372  1
 4694  3126  3209  1
 4695  3126  3127  1
 4696  3127  3374  1
 4697  3127  3128  1
 4698  3128  3211  1
 4699  3128  3129  1
 4700  3129  3376  1
 4701  3129  3130  1
 4702  3130  3213  1
 4703  3130  3131  1
 4704  3131  3378  1
 4705  3131  3132  1
 4706  3132  3215  1
 4707  3132  3133  1
 4708  3133  3134  1
 4709  3133  3380  1
 4710  3134  3217  1
 4711  3134  3135  1
 4712  3135  3136  1
 4713  3135  3382  1
 4714  3136  3219  1
 4715  3136  3137  1
 4716  3137  3384  1
 4717  3137  3138  1
 4718  3138  3221  1
 4719  3138  3139  1
 4720  3139  3386  1
 4721  3139  3140  1
 4722  3140  3223  1
 4723  3140  3141  1
 4724  3141  3388  1
 4725  3141  3142  1
 4726  3142  3225  1
 4727  3142  3143  1
 4728  3143  3390  1
 4729  3143  3144  1
 4730  3144  3227  1
 4731  3144  3145  1
 4732  3145  3392  1
 4733  3145  3146  1
 4734  3146  3229  1
 4735  3146  3147  1
 4736  3147  3394  1
 4737  3147  3148  1
 4738  3148  3231  1
 4739  3148  3149  1
 4740  3149  3150  1
 4741  3149  3396  1
 4742  3150  3233  1
 4743  3150  3151  1
 4744  3151  3152  1
 4745  3151  3398  1
 4746  3152  3235  1
 4747  3152  3153  1
 4748  3153  3154  1
 4749  3153  3400  1
 4750  3154  3237  1
 4751  3154  3155  1
 4752  3155  3156  1
 4753  3155  3402  1
 4754  3156  3239  1
 4755  3156  3157  1
 4756  3157  3158  1
 4757  3157  3404  1
 4758  3158  3241  1
 4759  3158  3159  1
 4760  3159  3160  1
 4761  3159  3406  1
 4762  3160  3243  1
 4763  3160  3161  1
 4764  3161  3162  1
 4765  3161  3408  1
 4766  3162  3245  1
 4767  3162  3163  1
 4768  3163  3164  1
 4769  3163  3410  1
 4770  3164  3247  1
 4771  3164  3165  1
 4772  3165  3166  1
 4773  3165  3412  1
 4774  3166  3249  1
 4775  3166  3167  1
 4776  3167  3168  1
 4777  3167  3414  1
 4778  3168  3251  1
 4779  3168  3169  1
 4780  3169  3170  1
 4781  3169  3416  1
 4782  3170  3253  1
 4783  3170  3171  1
 4784  3171  3172  1
 4785  3171  3418  1
 4786  3172  3255  1
 4787  3172  3173  1
 4788  3173  3174  1
 4789  3173  3420  1
 4790  3174  3257  1
 4791  3174  3175  1
 4792  3175  3176  1
 4793  3175  3422  1
 4794  3176  3259  1
 4795  3176  3177  1
 4796  3177  3424  1
 4797  3177  3178  1
 4798  3178  3261  1
 4799  3178  3179  1
 4800  3179  3180  1
 4801  3179  3426  1
 4802  3180  3263  1
 4803  3180  3181  1
 4804  3181  3182  1
 4805  3181  3428  1
 4806  3182  3265  1
 4807  3182  3183  1
 4808  3183  3184  1
 4809  3183  3430  1
 4810  3184  3267  1
 4811  3184  3185  1
 4812  3185  3186  1
 4813  3185  3432  1
 4814  3186  3269  1
 4815  3186  3187  1
 4816  3187  3188  1
 4817  3187  3434  1
 4818  3188  3271  1
 4819  3188  3189  1
 4820  3189  3190  1
 4821  3189  3436  1
 4822  3190  3273  1
 4823  3190  3191  1
 4824  3191  3192  1
 4825  3191  3438  1
 4826  3192  3275  1
 4827  3192  3193  1
 4828  3193  3194  1
 4829  3193  3440  1
 4830  3194  3277  1
 4831  3194  3195  1
 4832  3195  3196  1
 4833  3195  3442  1
 4834  3196  3279  1
 4835  3196  3197  1
 4836  3197  3198  1
 4837  3197  3444  1
 4838  3198  3199  1
 4839  3199  3280  1
 4840  3199  3200  1
 4841  3200  3201  1
 4842  3201  3202  1
 4843  3202  3203  1
 4844  3203  3204  1
 4845  3204  3205  1
 4846  3205  3206  1
 4847  3206  3207  1
 4848  3207  3208  1
 4849  3208  3209  1
 4850  3209  3210  1
 4851  3210  3211  1
 4852  3211  3212  1
 4853  3212  3213  1
 4854  3213  3214  1
 4855  3214  3215  1
 4856  3215  3216  1
 4857  3216  3217  1
 4858  3217  3218  1
 4859  3218  3219  1
 4860  3219  3220  1
 4861  3220  3221  1
 4862  3221  3222  1
 4863  3222  3223  1
 4864  3223  3224  1
 4865  3224  3225  1
 4866  3225  3226  1
 4867  3226  3227  1
 4868  3227  3228  1
 4869  3228  3229  1
 4870  3229  3230  1
 4871  3230  3231  1
 4872  3231  3232  1
 4873  3232  3233  1
 4874  3233  3234  1
 4875  3234  3235  1
 4876  3235  3236  1
 4877  3236  3237  1
 4878  3237  3238  1
 4879  3238  3239  1
 4880  3239  3240  1
 4881  3240  3241  1
 4882  3241  3242  1
 4883  3242  3243  1
 4884  3243  3244  1
 4885  3244  3245  1
 4886  3245  3246  1
 4887  3246  3247  1
 4888  3247  3248  1
 4889  3248  3249  1
 4890  3249  3250  1
 4891  3250  3251  1
 4892  3251  3252  1
 4893  3252  3253  1
 4894  3253  3254  1
 4895  3254  3255  1
 4896  3255  3256  1
 4897  3256  3257  1
 4898  3257  3258  1
 4899  3258  3259  1
 4900  3259  3260  1
 4901  3260  3261  1
 4902  3261  3262  1
 4903  3262  3263  1
 4904  3263  3264  1
 4905  3264  3265  1
 4906  3265  3266  1
 4907  3266  3267  1
 4908  3267  3268  1
 4909  3268  3269  1
 4910  3269  3270  1
 4911  3270  3271  1
 4912  3271  3272  1
 4913  3272  3273  1
 4914  3273  3274  1
 4915  3274  3275  1
 4916  3275  3276  1
 4917  3276  3277  1
 4918  3277  3278  1
 4919  3278  3279  1
 4920  3279  3280  1
 4921  3281  3362  1
 4922  3281  3282  1
 4923  3281  3528  1
 4924  3282  3365  1
 4925  3282  3283  1
 4926  3283  3284  1
 4927  3283  3530  1
 4928  3284  3367  1
 4929  3284  3285  1
 4930  3285  3532  1
 4931  3285  3286  1
 4932  3286  3369  1
 4933  3286  3287  1
 4934  3287  3288  1
 4935  3287  3534  1
 4936  3288  3371  1
 4937  3288  3289  1
 4938  3289  3290  1
 4939  3289  3536  1
 4940  3290  3373  1
 4941  3290  3291  1
 4942  3291  3538  1
 4943  3291  3292  1
 4944  3292  3375  1
 4945  3292  3293  1
 4946  3293  3540  1
 4947  3293  3294  1
 4948  3294  3377  1
 4949  3294  3295  1
 4950  3295  3542  1
 4951  3295  3296  1
 4952  3296  3379  1
 4953  3296  3297  1
 4954  3297  3298  1
 4955  3297  3544  1
 4956  3298  3381  1
 4957  3298  3299  1
 4958  3299  3300  1
 4959  3299  3546  1
 4960  3300  3383  1
 4961  3300  3301  1
 4962  3301  3548  1
 4963  3301  3302  1
 4964  3302  3385  1
 4965  3302  3303  1
 4966  3303  3550  1
 4967  3303  3304  1
 4968  3304  3387  1
 4969  3304  3305  1
 4970  3305  3552  1
 4971  3305  3306  1
 4972  3306  3389  1
 4973  3306  3307  1
 4974  3307  3554  1
 4975  3307  3308  1
 4976  3308  3391  1
 4977  3308  3309  1
 4978  3309  3556  1
 4979  3309  3310  1
 4980  3310  3393  1
 4981  3310  3311  1
 4982  3311  3558  1
 4983  3311  3312  1
 4984  3312  3395  1
 4985  3312  3313  1
 4986  3313  3314  1
 4987  3313  3560  1
 4988  3314  3397  1
 4989  3314  3315  1
 4990  3315  3316  1
 4991  3315  3562  1
 4992  3316  3399  1
 4993  3316  3317  1
 4994  3317  3318  1
 4995  3317  3564  1
 4996  3318  3401  1
 4997  3318  3319  1
 4998  3319  3320  1
 4999  3319  3566  1
 5000  3320  3403  1
 5001  3320  3321  1
 5002  3321  3322  1
 5003  3321  3568  1
 5004  3322  3405  1
 5005  3322  3323  1
 5006  3323  3324  1
 5007  3323  3570  1
 5008  3324  3407  1
 5009  3324  3325  1
 5010  3325  3326  1
 5011  3325  3572  1
 5012  3326  3409  1
 5013  3326  3327  1
 5014  3327  3328  1
 5015  3327  3574  1
 5016  3328  3411  1
 5017  3328  3329  1
 5018  3329  3330  1
 5019  3329  3576  1
 5020  3330  3413  1
 5021  3330  3331  1
 5022  3331  3332  1
 5023  3331  3578  1
 5024  3332  3415  1
 5025  3332  3333  1
 5026  3333  3334  1
 5027  3333  3580  1
 5028  3334  3417  1
 5029  3334  3335  1
 5030  3335  3336  1
 5031  3335  3582  1
 5032  3336  3419  1
 5033  3336  3337  1
 5034  3337  3338  1
 5035  3337  3584  1
 5036  3338  3421  1
 5037  3338  3339  1
 5038  3339  3340  1
 5039  3339  3586  1
 5040  3340  3423  1
 5041  3340  3341  1
 5042  3341  3588  1
 5043  3341  3342  1
 5044  3342  3425  1
 5045  3342  3343  1
 5046  3343  3344  1
 5047  3343  3590  1
 5048  3344  3427  1
 5049  3344  3345  1
 5050  3345  3346  1
 5051  3345  3592  1
 5052  3346  3429  1
 5053  3346  3347  1
 5054  3347  3348  1
 5055  3347  3594  1
 5056  3348  3431  1
 5057  3348  3349  1
 5058  3349  3350  1
 5059  3349  3596  1
 5060  3350  3433  1
 5061  3350  3351  1
 5062  3351  3352  1
 5063  3351  3598  1
 5064  3352  3435  1
 5065  3352  3353  1
 5066  3353  3354  1
 5067  3353  3600  1
 5068  3354  3437  1
 5069  3354  3355  1
 5070  3355  3356  1
 5071  3355  3602  1
 5072  3356  3439  1
 5073  3356  3357  1
 5074  3357  3358  1
 5075  3357  3604  1
 5076  3358  3441  1
 5077  3358  3359  1
 5078  3359  3360  1
 5079  3359  3606  1
 5080  3360  3443  1
 5081  3360  3361  1
 5082  3361  3362  1
 5083  3361  3608  1
 5084  3362  3363  1
 5085  3363  3444  1
 5086  3363  3364  1
 5087  3364  3365  1
 5088  3365  3366  1
 5089  3366  3367  1
 5090  3367  3368  1
 5091  3368  3369  1
 5092  3369  3370  1
 5093  3370  3371  1
 5094  3371  3372  1
 5095  3372  3373  1
 5096  3373  3374  1
 5097  3374  3375  1
 5098  3375  3376  1
 5099  3376  3377  1
 5100  3377  3378  1
 5101  3378  3379  1
 5102  3379  3380  1
 5103  3380  3381  1
 5104  3381  3382  1
 5105  3382  3383  1
 5106  3383  3384  1
 5107  3384  3385  1
 5108  3385  3386  1
 5109  3386  3387  1
 5110  3387  3388  1
 5111  3388  3389  1
 5112  3389  3390  1
 5113  3390  3391  1
 5114  3391  3392  1
 5115  3392  3393  1
 5116  3393  3394  1
 5117  3394  3395  1
 5118  3395  3396  1
 5119  3396  3397  1
 5120  3397  3398  1
 5121  3398  3399  1
 5122  3399  3400  1
 5123  3400  3401  1
 5124  3401  3402  1
 5125  3402  3403  1
 5126  3403  3404  1
 5127  3404  3405  1
 5128  3405  3406  1
 5129  3406  3407  1
 5130  3407  3408  1
 5131  3408  3409  1
 5132  3409  3410  1
 5133  3410  3411  1
 5134  3411  3412  1
 5135  3412  3413  1
 5136  3413  3414  1
 5137  3414  3415  1
 5138  3415  3416  1
 5139  3416  3417  1
 5140  3417  3418  1
 5141  3418  3419  1
 5142  3419  3420  1
 5143  3420  3421  1
 5144  3421  3422  1
 5145  3422  3423  1
 5146  3423  3424  1
 5147  3424  3425  1
 5148  3425  3426  1
 5149  3426  3427  1
 5150  3427  3428  1
 5151  3428  3429  1
 5152  3429  3430  1
 5153  3430  3431  1
 5154  3431  3432  1
 5155  3432  3433  1
 5156  3433  3434  1
 5157  3434  3435  1
 5158  3435  3436  1
 5159  3436  3437  1
 5160  3437  3438  1
 5161  3438  3439  1
 5162  3439  3440  1
 5163  3440  3441  1
 5164  3441  3442  1
 5165  3442  3443  1
 5166  3443  3444  1
 5167  3445  3526  1
 5168  3445  3446  1
 5169  3445  3692  1
 5170  3446  3529  1
 5171  3446  3447  1
 5172  3447  3448  1
 5173  3447  3694  1
 5174  3448  3531  1
 5175  3448  3449  1
 5176  3449  3696  1
 5177  3449  3450  1
 5178  3450  3533  1
 5179  3450  3451  1
 5180  3451  3452  1
 5181  3451  3698  1
 5182  3452  3535  1
 5183  3452  3453  1
 5184  3453  3454  1
 5185  3453  3700  1
 5186  3454  3537  1
 5187  3454  3455  1
 5188  3455  3702  1
 5189  3455  3456  1
 5190  3456  3539  1
 5191  3456  3457  1
 5192  3457  3704  1
 5193  3457  3458  1
 5194  3458  3541  1
 5195  3458  3459  1
 5196  3459  3706  1
 5197  3459  3460  1
 5198  3460  3543  1
 5199  3460  3461  1
 5200  3461  3462  1
 5201  3461  3708  1
 5202  3462  3545  1
 5203  3462  3463  1
 5204  3463  3464  1
 5205  3463  3710  1
 5206  3464  3547  1
 5207  3464  3465  1
 5208  3465  3712  1
 5209  3465  3466  1
 5210  3466  3549  1
 5211  3466  3467  1
 5212  3467  3714  1
 5213  3467  3468  1
 5214  3468  3551  1
 5215  3468  3469  1
 5216  3469  3716  1
 5217  3469  3470  1
 5218  3470  3553  1
 5219  3470  3471  1
 5220  3471  3718  1
 5221  3471  3472  1
 5222  3472  3555  1
 5223  3472  3473  1
 5224  3473  3720  1
 5225  3473  3474  1
 5226  3474  3557  1
 5227  3474  3475  1
 5228  3475  3722  1
 5229  3475  3476  1
 5230  3476  3559  1
 5231  3476  3477  1
 5232  3477  3478  1
 5233  3477  3724  1
 5234  3478  3561  1
 5235  3478  3479  1
 5236  3479  3480  1
 5237  3479  3726  1
 5238  3480  3563  1
 5239  3480  3481  1
 5240  3481  3482  1
 5241  3481  3728  1
 5242  3482  3565  1
 5243  3482  3483  1
 5244  3483  3484  1
 5245  3483  3730  1
 5246  3484  3567  1
 5247  3484  3485  1
 5248  3485  3486  1
 5249  3485  3732  1
 5250  3486  3569  1
 5251  3486  3487  1
 5252  3487  3488  1
 5253  3487  3734  1
 5254  3488  3571  1
 5255  3488  3489  1
 5256  3489  3490  1
 5257  3489  3736  1
 5258  3490  3573  1
 5259  3490  3491  1
 5260  3491  3492  1
 5261  3491  3738  1
 5262  3492  3575  1
 5263  3492  3493  1
 5264  3493  3494  1
 5265  3493  3740  1
 5266  3494  3577  1
 5267  3494  3495  1
 5268  3495  3496  1
 5269  3495  3742  1
 5270  3496  3579  1
 5271  3496  3497  1
 5272  3497  3498  1
 5273  3497  3744  1
 5274  3498  3581  1
 5275  3498  3499  1
 5276  3499  3500  1
 5277  3499  3746  1
 5278  3500  3583  1
 5279  3500  3501  1
 5280  3501  3502  1
 5281  3501  3748  1
 5282  3502  3585  1
 5283  3502  3503  1
 5284  3503  3504  1
 5285  3503  3750  1
 5286  3504  3587  1
 5287  3504  3505  1
 5288  3505  3752  1
 5289  3505  3506  1
 5290  3506  3589  1
 5291  3506  3507  1
 5292  3507  3508  1
 5293  3507  3754  1
 5294  3508  3591  1
 5295  3508  3509  1
 5296  3509  3510  1
 5297  3509  3756  1
 5298  3510  3593  1
 5299  3510  3511  1
 5300  3511  3512  1
 5301  3511  3758  1
 5302  3512  3595  1
 5303  3512  3513  1
 5304  3513  3514  1
 5305  3513  3760  1
 5306  3514  3597  1
 5307  3514  3515  1
 5308  3515  3516  1
 5309  3515  3762  1
 5310  3516  3599  1
 5311  3516  3517  1
 5312  3517  3518  1
 5313  3517  3764  1
 5314  3518  3601  1
 5315  3518  3519  1
 5316  3519  3520  1
 5317  3519  3766  1
 5318  3520  3603  1
 5319  3520  3521  1
 5320  3521  3522  1
 5321  3521  3768  1
 5322  3522  3605  1
 5323  3522  3523  1
 5324  3523  3524  1
 5325  3523  3770  1
 5326  3524  3607  1
 5327  3524  3525  1
 5328  3525  3526  1
 5329  3525  3772  1
 5330  3526  3527  1
 5331  3527  3608  1
 5332  3527  3528  1
 5333  3528  3529  1
 5334  3529  3530  1
 5335  3530  3531  1
 5336  3531  3532  1
 5337  3532  3533  1
 5338  3533  3534  1
 5339  3534  3535  1
 5340  3535  3536  1
 5341  3536  3537  1
 5342  3537  3538  1
 5343  3538  3539  1
 5344  3539  3540  1
 5345  3540  3541  1
 5346  3541  3542  1
 5347  3542  3543  1
 5348  3543  3544  1
 5349  3544  3545  1
 5350  3545  3546  1
 5351  3546  3547  1
 5352  3547  3548  1
 5353  3548  3549  1
 5354  3549  3550  1
 5355  3550  3551  1
 5356  3551  3552  1
 5357  3552  3553  1
 5358  3553  3554  1
 5359  3554  3555  1
 5360  3555  3556  1
 5361  3556  3557  1
 5362  3557  3558  1
 5363  3558  3559  1
 5364  3559  3560  1
 5365  3560  3561  1
 5366  3561  3562  1
 5367  3562  3563  1
 5368  3563  3564  1
 5369  3564  3565  1
 5370  3565  3566  1
 5371  3566  3567  1
 5372  3567  3568  1
 5373  3568  3569  1
 5374  3569  3570  1
 5375  3570  3571  1
 5376  3571  3572  1
 5377  3572  3573  1
 5378  3573  3574  1
 5379  3574  3575  1
 5380  3575  3576  1
 5381  3576  3577  1
 5382  3577  3578  1
 5383  3578  3579  1
 5384  3579  3580  1
 5385  3580  3581  1
 5386  3581  3582  1
 5387  3582  3583  1
 5388  3583  3584  1
 5389  3584  3585  1
 5390  3585  3586  1
 5391  3586  3587  1
 5392  3587  3588  1
 5393  3588  3589  1
 5394  3589  3590  1
 5395  3590  3591  1
 5396  3591  3592  1
 5397  3592  3593  1
 5398  3593  3594  1
 5399  3594  3595  1
 5400  3595  3596  1
 5401  3596  3597  1
 5402  3597  3598  1
 5403  3598  3599  1
 5404  3599  3600  1
 5405  3600  3601  1
 5406  3601  3602  1
 5407  3602  3603  1
 5408  3603  3604  1
 5409  3604  3605  1
 5410  3605  3606  1
 5411  3606  3607  1
 5412  3607  3608  1
 5413  3609  3690  1
 5414  3609  3610  1
 5415  3609  3856  1
 5416  3610  3693  1
 5417  3610  3611  1
 5418  3611  3612  1
 5419  3611  3858  1
 5420  3612  3695  1
 5421  3612  3613  1
 5422  3613  3860  1
 5423  3613  3614  1
 5424  3614  3697  1
 5425  3614  3615  1
 5426  3615  3616  1
 5427  3615  3862  1
 5428  3616  3699  1
 5429  3616  3617  1
 5430  3617  3618  1
 5431  3617  3864  1
 5432  3618  3701  1
 5433  3618  3619  1
 5434  3619  3866  1
 5435  3619  3620  1
 5436  3620  3703  1
 5437  3620  3621  1
 5438  3621  3868  1
 5439  3621  3622  1
 5440  3622  3705  1
 5441  3622  3623  1
 5442  3623  3870  1
 5443  3623  3624  1
 5444  3624  3707  1
 5445  3624  3625  1
 5446  3625  3626  1
 5447  3625  3872  1
 5448  3626  3709  1
 5449  3626  3627  1
 5450  3627  3628  1
 5451  3627  3874  1
 5452  3628  3711  1
 5453  3628  3629  1
 5454  3629  3876  1
 5455  3629  3630  1
 5456  3630  3713  1
 5457  3630  3631  1
 5458  3631  3878  1
 5459  3631  3632  1
 5460  3632  3715  1
 5461  3632  3633  1
 5462  3633  3880  1
 5463  3633  3634  1
 5464  3634  3717  1
 5465  3634  3635  1
 5466  3635  3882  1
 5467  3635  3636  1
 5468  3636  3719  1
 5469  3636  3637  1
 5470  3637  3884  1
 5471  3637  3638  1
 5472  3638  3721  1
 5473  3638  3639  1
 5474  3639  3886  1
 5475  3639  3640  1
 5476  3640  3723  1
 5477  3640  3641  1
 5478  3641  3642  1
 5479  3641  3888  1
 5480  3642  3725  1
 5481  3642  3643  1
 5482  3643  3644  1
 5483  3643  3890  1
 5484  3644  3727  1
 5485  3644  3645  1
 5486  3645  3646  1
 5487  3645  3892  1
 5488  3646  3729  1
 5489  3646  3647  1
 5490  3647  3648  1
 5491  3647  3894  1
 5492  3648  3731  1
 5493  3648  3649  1
 5494  3649  3650  1
 5495  3649  3896  1
 5496  3650  3733  1
 5497  3650  3651  1
 5498  3651  3652  1
 5499  3651  3898  1
 5500  3652  3735  1
 5501  3652  3653  1
 5502  3653  3654  1
 5503  3653  3900  1
 5504  3654  3737  1
 5505  3654  3655  1
 5506  3655  3656  1
 5507  3655  3902  1
 5508  3656  3739  1
 5509  3656  3657  1
 5510  3657  3658  1
 5511  3657  3904  1
 5512  3658  3741  1
 5513  3658  3659  1
 5514  3659  3660  1
 5515  3659  3906  1
 5516  3660  3743  1
 5517  3660  3661  1
 5518  3661  3662  1
 5519  3661  3908  1
 5520  3662  3745  1
 5521  3662  3663  1
 5522  3663  3664  1
 5523  3663  3910  1
 5524  3664  3747  1
 5525  3664  3665  1
 5526  3665  3666  1
 5527  3665  3912  1
 5528  3666  3749  1
 5529  3666  3667  1
 5530  3667  3668  1
 5531  3667  3914  1
 5532  3668  3751  1
 5533  3668  3669  1
 5534  3669  3916  1
 5535  3669  3670  1
 5536  3670  3753  1
 5537  3670  3671  1
 5538  3671  3672  1
 5539  3671  3918  1
 5540  3672  3755  1
 5541  3672  3673  1
 5542  3673  3674  1
 5543  3673  3920  1
 5544  3674  3757  1
 5545  3674  3675  1
 5546  3675  3676  1
 5547  3675  3922  1
 5548  3676  3759  1
 5549  3676  3677  1
 5550  3677  3678  1
 5551  3677  3924  1
 5552  3678  3761  1
 5553  3678  3679  1
 5554  3679  3680  1
 5555  3679  3926  1
 5556  3680  3763  1
 5557  3680  3681  1
 5558  3681  3682  1
 5559  3681  3928  1
 5560  3682  3765  1
 5561  3682  3683  1
 5562  3683  3684  1
 5563  3683  3930  1
 5564  3684  3767  1
 5565  3684  3685  1
 5566  3685  3686  1
 5567  3685  3932  1
 5568  3686  3769  1
 5569  3686  3687  1
 5570  3687  3688  1
 5571  3687  3934  1
 5572  3688  3771  1
 5573  3688  3689  1
 5574  3689  3690  1
 5575  3689  3936  1
 5576  3690  3691  1
 5577  3691  3772  1
 5578  3691  3692  1
 5579  3692  3693  1
 5580  3693  3694  1
 5581  3694  3695  1
 5582  3695  3696  1
 5583  3696  3697  1
 5584  3697  3698  1
 5585  3698  3699  1
 5586  3699  3700  1
 5587  3700  3701  1
 5588  3701  3702  1
 5589  3702  3703  1
 5590  3703  3704  1
 5591  3704  3705  1
 5592  3705  3706  1
 5593  3706  3707  1
 5594  3707  3708  1
 5595  3708  3709  1
 5596  3709  3710  1
 5597  3710  3711  1
 5598  3711  3712  1
 5599  3712  3713  1
 5600  3713  3714  1
 5601  3714  3715  1
 5602  3715  3716  1
 5603  3716  3717  1
 5604  3717  3718  1
 5605  3718  3719  1
 5606  3719  3720  1
 5607  3720  3721  1
 5608  3721  3722  1
 5609  3722  3723  1
 5610  3723  3724  1
 5611  3724  3725  1
 5612  3725  3726  1
 5613  3726  3727  1
 5614  3727  3728  1
 5615  3728  3729  1
 5616  3729  3730  1
 5617  3730  3731  1
 5618  3731  3732  1
 5619  3732  3733  1
 5620  3733  3734  1
 5621  3734  3735  1
 5622  3735  3736  1
 5623  3736  3737  1
 5624  3737  3738  1
 5625  3738  3739  1
 5626  3739  3740  1
 5627  3740  3741  1
 5628  3741  3742  1
 5629  3742  3743  1
 5630  3743  3744  1
 5631  3744  3745  1
 5632  3745  3746  1
 5633  3746  3747  1
 5634  3747  3748  1
 5635  3748  3749  1
 5636  3749  3750  1
 5637  3750  3751  1
 5638  3751  3752  1
 5639  3752  3753  1
 5640  3753  3754  1
 5641  3754  3755  1
 5642  3755  3756  1
 5643  3756  3757  1
 5644  3757  3758  1
 5645  3758  3759  1
 5646  3759  3760  1
 5647  3760  3761  1
 5648  3761  3762  1
 5649  3762  3763  1
 5650  3763  3764  1
 5651  3764  3765  1
 5652  3765  3766  1
 5653  3766  3767  1
 5654  3767  3768  1
 5655  3768  3769  1
 5656  3769  3770  1
 5657  3770  3771  1
 5658  3771  3772  1
 5659  3773  3854  1
 5660  3773  3774  1
 5661  3773  4020  1
 5662  3774  3857  1
 5663  3774  3775  1
 5664  3775  3776  1
 5665  3775  4022  1
 5666  3776  3859  1
 5667  3776  3777  1
 5668  3777  4024  1
 5669  3777  3778  1
 5670  3778  3861  1
 5671  3778  3779  1
 5672  3779  3780  1
 5673  3779  4026  1
 5674  3780  3863  1
 5675  3780  3781  1
 5676  3781  3782  1
 5677  3781  4028  1
 5678  3782  3865  1
 5679  3782  3783  1
 5680  3783  4030  1
 5681  3783  3784  1
 5682  3784  3867  1
 5683  3784  3785  1
 5684  3785  4032  1
 5685  3785  3786  1
 5686  3786  3869  1
 5687  3786  3787  1
 5688  3787  4034  1
 5689  3787  3788  1
 5690  3788  3871  1
 5691  3788  3789  1
 5692  3789  3790  1
 5693  3789  4036  1
 5694  3790  3873  1
 5695  3790  3791  1
 5696  3791  3792  1
 5697  3791  4038  1
 5698  3792  3793  1
 5699  3792  3875  1
 5700  3793  4040  1
 5701  3793  3794  1
 5702  3794  3877  1
 5703  3794  3795  1
 5704  3795  4042  1
 5705  3795  3796  1
 5706  3796  3879  1
 5707  3796  3797  1
 5708  3797  4044  1
 5709  3797  3798  1
 5710  3798  3881  1
 5711  3798  3799  1
 5712  3799  4046  1
 5713  3799  3800  1
 5714  3800  3883  1
 5715  3800  3801  1
 5716  3801  4048  1
 5717  3801  3802  1
 5718  3802  3885  1
 5719  3802  3803  1
 5720  3803  4050  1
 5721  3803  3804  1
 5722  3804  3887  1
 5723  3804  3805  1
 5724  3805  3806  1
 5725  3805  4052  1
 5726  3806  3889  1
 5727  3806  3807  1
 5728  3807  3808  1
 5729  3807  4054  1
 5730  3808  3891  1
 5731  3808  3809  1
 5732  3809  3810  1
 5733  3809  4056  1
 5734  3810  3893  1
 5735  3810  3811  1
 5736  3811  3812  1
 5737  3811  4058  1
 5738  3812  3895  1
 5739  3812  3813  1
 5740  3813  3814  1
 5741  3813  4060  1
 5742  3814  3897  1
 5743  3814  3815  1
 5744  3815  3816  1
 5745  3815  4062  1
 5746  3816  3899  1
 5747  3816  3817  1
 5748  3817  3818  1
 5749  3817  4064  1
 5750  3818  3901  1
 5751  3818  3819  1
 5752  3819  4066  1
 5753  3819  3820  1
 5754  3820  3903  1
 5755  3820  3821  1
 5756  3821  3822  1
 5757  3821  4068  1
 5758  3822  3905  1
 5759  3822  3823  1
 5760  3823  3824  1
 5761  3823  4070  1
 5762  3824  3907  1
 5763  3824  3825  1
 5764  3825  3826  1
 5765  3825  4072  1
 5766  3826  3909  1
 5767  3826  3827  1
 5768  3827  3828  1
 5769  3827  4074  1
 5770  3828  3911  1
 5771  3828  3829  1
 5772  3829  3830  1
 5773  3829  4076  1
 5774  3830  3913  1
 5775  3830  3831  1
 5776  3831  3832  1
 5777  3831  4078  1
 5778  3832  3915  1
 5779  3832  3833  1
 5780  3833  3834  1
 5781  3833  4080  1
 5782  3834  3917  1
 5783  3834  3835  1
 5784  3835  3836  1
 5785  3835  4082  1
 5786  3836  3919  1
 5787  3836  3837  1
 5788  3837  3838  1
 5789  3837  4084  1
 5790  3838  3921  1
 5791  3838  3839  1
 5792  3839  3840  1
 5793  3839  4086  1
 5794  3840  3923  1
 5795  3840  3841  1
 5796  3841  3842  1
 5797  3841  4088  1
 5798  3842  3925  1
 5799  3842  3843  1
 5800  3843  3844  1
 5801  3843  4090  1
 5802  3844  3927  1
 5803  3844  3845  1
 5804  3845  4092  1
 5805  3845  3846  1
 5806  3846  3929  1
 5807  3846  3847  1
 5808  3847  3848  1
 5809  3847  4094  1
 5810  3848  3931  1
 5811  3848  3849  1
 5812  3849  3850  1
 5813  3849  4096  1
 5814  3850  3933  1
 5815  3850  3851  1
 5816  3851  3852  1
 5817  3851  4098  1
 5818  3852  3935  1
 5819  3852  3853  1
 5820  3853  3854  1
 5821  3853  4100  1
 5822  3854  3855  1
 5823  3855  3936  1
 5824  3855  3856  1
 5825  3856  3857  1
 5826  3857  3858  1
 5827  3858  3859  1
 5828  3859  3860  1
 5829  3860  3861  1
 5830  3861  3862  1
 5831  3862  3863  1
 5832  3863  3864  1
 5833  3864  3865  1
 5834  3865  3866  1
 5835  3866  3867  1
 5836  3867  3868  1
 5837  3868  3869  1
 5838  3869  3870  1
 5839  3870  3871  1
 5840  3871  3872  1
 5841  3872  3873  1
 5842  3873  3874  1
 5843  3874  3875  1
 5844  3875  3876  1
 5845  3876  3877  1
 5846  3877  3878  1
 5847  3878  3879  1
 5848  3879  3880  1
 5849  3880  3881  1
 5850  3881  3882  1
 5851  3882  3883  1
 5852  3883  3884  1
 5853  3884  3885  1
 5854  3885  3886  1
 5855  3886  3887  1
 5856  3887  3888  1
 5857  3888  3889  1
 5858  3889  3890  1
 5859  3890  3891  1
 5860  3891  3892  1
 5861  3892  3893  1
 5862  3893  3894  1
 5863  3894  3895  1
 5864  3895  3896  1
 5865  3896  3897  1
 5866  3897  3898  1
 5867  3898  3899  1
 5868  3899  3900  1
 5869  3900  3901  1
 5870  3901  3902  1
 5871  3902  3903  1
 5872  3903  3904  1
 5873  3904  3905  1
 5874  3905  3906  1
 5875  3906  3907  1
 5876  3907  3908  1
 5877  3908  3909  1
 5878  3909  3910  1
 5879  3910  3911  1
 5880  3911  3912  1
 5881  3912  3913  1
 5882  3913  3914  1
 5883  3914  3915  1
 5884  3915  3916  1
 5885  3916  3917  1
 5886  3917  3918  1
 5887  3918  3919  1
 5888  3919  3920  1
 5889  3920  3921  1
 5890  3921  3922  1
 5891  3922  3923  1
 5892  3923  3924  1
 5893  3924  3925  1
 5894  3925  3926  1
 5895  3926  3927  1
 5896  3927  3928  1
 5897  3928  3929  1
 5898  3929  3930  1
 5899  3930  3931  1
 5900  3931  3932  1
 5901  3932  3933  1
 5902  3933  3934  1
 5903  3934  3935  1
 5904  3935  3936  1
 5905  3937  4018  1
 5906  3937  3938  1
 5907  3937  4184  1
 5908  3938  4021  1
 5909  3938  3939  1
 5910  3939  3940  1
 5911  3939  4186  1
 5912  3940  4023  1
 5913  3940  3941  1
 5914  3941  4188  1
 5915  3941  3942  1
 5916  3942  4025  1
 5917  3942  3943  1
 5918  3943  3944  1
 5919  3943  4190  1
 5920  3944  4027  1
 5921  3944  3945  1
 5922  3945  3946  1
 5923  3945  4192  1
 5924  3946  4029  1
 5925  3946  3947  1
 5926  3947  4194  1
 5927  3947  3948  1
 5928  3948  4031  1
 5929  3948  3949  1
 5930  3949  4196  1
 5931  3949  3950  1
 5932  3950  4033  1
 5933  3950  3951  1
 5934  3951  4198  1
 5935  3951  3952  1
 5936  3952  4035  1
 5937  3952  3953  1
 5938  3953  3954  1
 5939  3953  4200  1
 5940  3954  4037  1
 5941  3954  3955  1
 5942  3955  3956  1
 5943  3955  4202  1
 5944  3956  3957  1
 5945  3956  4039  1
 5946  3957  4204  1
 5947  3957  3958  1
 5948  3958  4041  1
 5949  3958  3959  1
 5950  3959  4206  1
 5951  3959  3960  1
 5952  3960  4043  1
 5953  3960  3961  1
 5954  3961  4208  1
 5955  3961  3962  1
 5956  3962  4045  1
 5957  3962  3963  1
 5958  3963  4210  1
 5959  3963  3964  1
 5960  3964  4047  1
 5961  3964  3965  1
 5962  3965  4212  1
 5963  3965  3966  1
 5964  3966  4049  1
 5965  3966  3967  1
 5966  3967  4214  1
 5967  3967  3968  1
 5968  3968  4051  1
 5969  3968  3969  1
 5970  3969  3970  1
 5971  3969  4216  1
 5972  3970  4053  1
 5973  3970  3971  1
 5974  3971  3972  1
 5975  3971  4218  1
 5976  3972  4055  1
 5977  3972  3973  1
 5978  3973  3974  1
 5979  3973  4220  1
 5980  3974  4057  1
 5981  3974  3975  1
 5982  3975  3976  1
 5983  3975  4222  1
 5984  3976  4059  1
 5985  3976  3977  1
 5986  3977  3978  1
 5987  3977  4224  1
 5988  3978  4061  1
 5989  3978  3979  1
 5990  3979  3980  1
 5991  3979  4226  1
 5992  3980  4063  1
 5993  3980  3981  1
 5994  3981  3982  1
 5995  3981  4228  1
 5996  3982  4065  1
 5997  3982  3983  1
 5998  3983  4230  1
 5999  3983  3984  1
 6000  3984  4067  1
 6001  3984  3985  1
 6002  3985  3986  1
 6003  3985  4232  1
 6004  3986  4069  1
 6005  3986  3987  1
 6006  3987  3988  1
 6007  3987  4234  1
 6008  3988  4071  1
 6009  3988  3989  1
 6010  3989  3990  1
 6011  3989  4236  1
 6012  3990  4073  1
 6013  3990  3991  1
 6014  3991  3992  1
 6015  3991  4238  1
 6016  3992  4075  1
 6017  3992  3993  1
 6018  3993  3994  1
 6019  3993  4240  1
 6020  3994  4077  1
 6021  3994  3995  1
 6022  3995  3996  1
 6023  3995  4242  1
 6024  3996  4079  1
 6025  3996  3997  1
 6026  3997  3998  1
 6027  3997  4244  1
 6028  3998  4081  1
 6029  3998  3999  1
 6030  3999  4000  1
 6031  3999  4246  1
 6032  4000  4083  1
 6033  4000  4001  1
 6034  4001  4002  1
 6035  4001  4248  1
 6036  4002  4085  1
 6037  4002  4003  1
 6038  4003  4004  1
 6039  4003  4250  1
 6040  4004  4087  1
 6041  4004  4005  1
 6042  4005  4006  1
 6043  4005  4252  1
 6044  4006  4089  1
 6045  4006  4007  1
 6046  4007  4008  1
 6047  4007  4254  1
 6048  4008  4091  1
 6049  4008  4009  1
 6050  4009  4256  1
 6051  4009  4010  1
 6052  4010  4093  1
 6053  4010  4011  1
 6054  4011  4012  1
 6055  4011  4258  1
 6056  4012  4095  1
 6057  4012  4013  1
 6058  4013  4014  1
 6059  4013  4260  1
 6060  4014  4097  1
 6061  4014  4015  1
 6062  4015  4016  1
 6063  4015  4262  1
 6064  4016  4099  1
 6065  4016  4017  1
 6066  4017  4018  1
 6067  4017  4264  1
 6068  4018  4019  1
 6069  4019  4100  1
 6070  4019  4020  1
 6071  4020  4021  1
 6072  4021  4022  1
 6073  4022  4023  1
 6074  4023  4024  1
 6075  4024  4025  1
 6076  4025  4026  1
 6077  4026  4027  1
 6078  4027  4028  1
 6079  4028  4029  1
 6080  4029  4030  1
 6081  4030  4031  1
 6082  4031  4032  1
 6083  4032  4033  1
 6084  4033  4034  1
 6085  4034  4035  1
 6086  4035  4036  1
 6087  4036  4037  1
 6088  4037  4038  1
 6089  4038  4039  1
 6090  4039  4040  1
 6091  4040  4041  1
 6092  4041  4042  1
 6093  4042  4043  1
 6094  4043  4044  1
 6095  4044  4045  1
 6096  4045  4046  1
 6097  4046  4047  1
 6098  4047  4048  1
 6099  4048  4049  1
 6100  4049  4050  1
 6101  4050  4051  1
 6102  4051  4052  1
 6103  4052  4053  1
 6104  4053  4054  1
 6105  4054  4055  1
 6106  4055  4056  1
 6107  4056  4057  1
 6108  4057  4058  1
 6109  4058  4059  1
 6110  4059  4060  1
 6111  4060  4061  1
 6112  4061  4062  1
 6113  4062  4063  1
 6114  4063  4064  1
 6115  4064  4065  1
 6116  4065  4066  1
 6117  4066  4067  1
 6118  4067  4068  1
 6119  4068  4069  1
 6120  4069  4070  1
 6121  4070  4071  1
 6122  4071  4072  1
 6123  4072  4073  1
 6124  4073  4074  1
 6125  4074  4075  1
 6126  4075  4076  1
 6127  4076  4077  1
 6128  4077  4078  1
 6129  4078  4079  1
 6130  4079  4080  1
 6131  4080  4081  1
 6132  4081  4082  1
 6133  4082  4083  1
 6134  4083  4084  1
 6135  4084  4085  1
 6136  4085  4086  1
 6137  4086  4087  1
 6138  4087  4088  1
 6139  4088  4089  1
 6140  4089  4090  1
 6141  4090  4091  1
 6142  4091  4092  1
 6143  4092  4093  1
 6144  4093  4094  1
 6145  4094  4095  1
 6146  4095  4096  1
 6147  4096  4097  1
 6148  4097  4098  1
 6149  4098  4099  1
 6150  4099  4100  1
 6151  4101  4182  1
 6152  4101  4102  1
 6153  4101  4348  1
 6154  4102  4185  1
 6155  4102  4103  1
 6156  4103  4104  1
 6157  4103  4350  1
 6158  4104  4187  1
 6159  4104  4105  1
 6160  4105  4352  1
 6161  4105  4106  1
 6162  4106  4189  1
 6163  4106  4107  1
 6164  4107  4108  1
 6165  4107  4354  1
 6166  4108  4191  1
 6167  4108  4109  1
 6168  4109  4110  1
 6169  4109  4356  1
 6170  4110  4193  1
 6171  4110  4111  1
 6172  4111  4358  1
 6173  4111  4112  1
 6174  4112  4195  1
 6175  4112  4113  1
 6176  4113  4360  1
 6177  4113  4114  1
 6178  4114  4197  1
 6179  4114  4115  1
 6180  4115  4362  1
 6181  4115  4116  1
 6182  4116  4199  1
 6183  4116  4117  1
 6184  4117  4118  1
 6185  4117  4364  1
 6186  4118  4201  1
 6187  4118  4119  1
 6188  4119  4120  1
 6189  4119  4366  1
 6190  4120  4121  1
 6191  4120  4203  1
 6192  4121  4368  1
 6193  4121  4122  1
 6194  4122  4205  1
 6195  4122  4123  1
 6196  4123  4370  1
 6197  4123  4124  1
 6198  4124  4207  1
 6199  4124  4125  1
 6200  4125  4372  1
 6201  4125  4126  1
 6202  4126  4209  1
 6203  4126  4127  1
 6204  4127  4374  1
 6205  4127  4128  1
 6206  4128  4211  1
 6207  4128  4129  1
 6208  4129  4376  1
 6209  4129  4130  1
 6210  4130  4213  1
 6211  4130  4131  1
 6212  4131  4378  1
 6213  4131  4132  1
 6214  4132  4215  1
 6215  4132  4133  1
 6216  4133  4134  1
 6217  4133  4380  1
 6218  4134  4217  1
 6219  4134  4135  1
 6220  4135  4136  1
 6221  4135  4382  1
 6222  4136  4219  1
 6223  4136  4137  1
 6224  4137  4138  1
 6225  4137  4384  1
 6226  4138  4221  1
 6227  4138  4139  1
 6228  4139  4140  1
 6229  4139  4386  1
 6230  4140  4223  1
 6231  4140  4141  1
 6232  4141  4142  1
 6233  4141  4388  1
 6234  4142  4225  1
 6235  4142  4143  1
 6236  4143  4144  1
 6237  4143  4390  1
 6238  4144  4227  1
 6239  4144  4145  1
 6240  4145  4146  1
 6241  4145  4392  1
 6242  4146  4229  1
 6243  4146  4147  1
 6244  4147  4394  1
 6245  4147  4148  1
 6246  4148  4231  1
 6247  4148  4149  1
 6248  4149  4150  1
 6249  4149  4396  1
 6250  4150  4233  1
 6251  4150  4151  1
 6252  4151  4152  1
 6253  4151  4398  1
 6254  4152  4235  1
 6255  4152  4153  1
 6256  4153  4154  1
 6257  4153  4400  1
 6258  4154  4237  1
 6259  4154  4155  1
 6260  4155  4156  1
 6261  4155  4402  1
 6262  4156  4239  1
 6263  4156  4157  1
 6264  4157  4158  1
 6265  4157  4404  1
 6266  4158  4241  1
 6267  4158  4159  1
 6268  4159  4160  1
 6269  4159  4406  1
 6270  4160  4243  1
 6271  4160  4161  1
 6272  4161  4162  1
 6273  4161  4408  1
 6274  4162  4245  1
 6275  4162  4163  1
 6276  4163  4164  1
 6277  4163  4410  1
 6278  4164  4247  1
 6279  4164  4165  1
 6280  4165  4166  1
 6281  4165  4412  1
 6282  4166  4249  1
 6283  4166  4167  1
 6284  4167  4168  1
 6285  4167  4414  1
 6286  4168  4251  1
 6287  4168  4169  1
 6288  4169  4170  1
 6289  4169  4416  1
 6290  4170  4253  1
 6291  4170  4171  1
 6292  4171  4172  1
 6293  4171  4418  1
 6294  4172  4255  1
 6295  4172  4173  1
 6296  4173  4420  1
 6297  4173  4174  1
 6298  4174  4257  1
 6299  4174  4175  1
 6300  4175  4176  1
 6301  4175  4422  1
 6302  4176  4259  1
 6303  4176  4177  1
 6304  4177  4178  1
 6305  4177  4424  1
 6306  4178  4261  1
 6307  4178  4179  1
 6308  4179  4180  1
 6309  4179  4426  1
 6310  4180  4263  1
 6311  4180  4181  1
 6312  4181  4182  1
 6313  4181  4428  1
 6314  4182  4183  1
 6315  4183  4264  1
 6316  4183  4184  1
 6317  4184  4185  1
 6318  4185  4186  1
 6319  4186  4187  1
 6320  4187  4188  1
 6321  4188  4189  1
 6322  4189  4190  1
 6323  4190  4191  1
 6324  4191  4192  1
 6325  4192  4193  1
 6326  4193  4194  1
 6327  4194  4195  1
 6328  4195  4196  1
 6329  4196  4197  1
 6330  4197  4198  1
 6331  4198  4199  1
 6332  4199  4200  1
 6333  4200  4201  1
 6334  4201  4202  1
 6335  4202  4203  1
 6336  4203  4204  1
 6337  4204  4205  1
 6338  4205  4206  1
 6339  4206  4207  1
 6340  4207  4208  1
 6341  4208  4209  1
 6342  4209  4210  1
 6343  4210  4211  1
 6344  4211  4212  1
 6345  4212  4213  1
 6346  4213  4214  1
 6347  4214  4215  1
 6348  4215  4216  1
 6349  4216  4217  1
 6350  4217  4218  1
 6351  4218  4219  1
 6352  4219  4220  1
 6353  4220  4221  1
 6354  4221  4222  1
 6355  4222  4223  1
 6356  4223  4224  1
 6357  4224  4225  1
 6358  4225  4226  1
 6359  4226  4227  1
 6360  4227  4228  1
 6361  4228  4229  1
 6362  4229  4230  1
 6363  4230  4231  1
 6364  4231  4232  1
 6365  4232  4233  1
 6366  4233  4234  1
 6367  4234  4235  1
 6368  4235  4236  1
 6369  4236  4237  1
 6370  4237  4238  1
 6371  4238  4239  1
 6372  4239  4240  1
 6373  4240  4241  1
 6374  4241  4242  1
 6375  4242  4243  1
 6376  4243  4244  1
 6377  4244  4245  1
 6378  4245  4246  1
 6379  4246  4247  1
 6380  4247  4248  1
 6381  4248  4249  1
 6382  4249  4250  1
 6383  4250  4251  1
 6384  4251  4252  1
 6385  4252  4253  1
 6386  4253  4254  1
 6387  4254  4255  1
 6388  4255  4256  1
 6389  4256  4257  1
 6390  4257  4258  1
 6391  4258  4259  1
 6392  4259  4260  1
 6393  4260  4261  1
 6394  4261  4262  1
 6395  4262  4263  1
 6396  4263  4264  1
 6397  4265  4346  1
 6398  4265  4266  1
 6399  4265  4512  1
 6400  4266  4349  1
 6401  4266  4267  1
 6402  4267  4268  1
 6403  4267  4514  1
 6404  4268  4351  1
 6405  4268  4269  1
 6406  4269  4516  1
 6407  4269  4270  1
 6408  4270  4353  1
 6409  4270  4271  1
 6410  4271  4272  1
 6411  4271  4518  1
 6412  4272  4355  1
 6413  4272  4273  1
 6414  4273  4274  1
 6415  4273  4520  1
 6416  4274  4357  1
 6417  4274  4275  1
 6418  4275  4522  1
 6419  4275  4276  1
 6420  4276  4359  1
 6421  4276  4277  1
 6422  4277  4524  1
 6423  4277  4278  1
 6424  4278  4361  1
 6425  4278  4279  1
 6426  4279  4526  1
 6427  4279  4280  1
 6428  4280  4363  1
 6429  4280  4281  1
 6430  4281  4282  1
 6431  4281  4528  1
 6432  4282  4365  1
 6433  4282  4283  1
 6434  4283  4284  1
 6435  4283  4530  1
 6436  4284  4285  1
 6437  4284  4367  1
 6438  4285  4532  1
 6439  4285  4286  1
 6440  4286  4369  1
 6441  4286  4287  1
 6442  4287  4534  1
 6443  4287  4288  1
 6444  4288  4371  1
 6445  4288  4289  1
 6446  4289  4536  1
 6447  4289  4290  1
 6448  4290  4373  1
 6449  4290  4291  1
 6450  4291  4538  1
 6451  4291  4292  1
 6452  4292  4375  1
 6453  4292  4293  1
 6454  4293  4540  1
 6455  4293  4294  1
 6456  4294  4377  1
 6457  4294  4295  1
 6458  4295  4542  1
 6459  4295  4296  1
 6460  4296  4379  1
 6461  4296  4297  1
 6462  4297  4298  1
 6463  4297  4544  1
 6464  4298  4381  1
 6465  4298  4299  1
 6466  4299  4300  1
 6467  4299  4546  1
 6468  4300  4383  1
 6469  4300  4301  1
 6470  4301  4302  1
 6471  4301  4548  1
 6472  4302  4385  1
 6473  4302  4303  1
 6474  4303  4304  1
 6475  4303  4550  1
 6476  4304  4387  1
 6477  4304  4305  1
 6478  4305  4306  1
 6479  4305  4552  1
 6480  4306  4389  1
 6481  4306  4307  1
 6482  4307  4308  1
 6483  4307  4554  1
 6484  4308  4391  1
 6485  4308  4309  1
 6486  4309  4310  1
 6487  4309  4556  1
 6488  4310  4393  1
 6489  4310  4311  1
 6490  4311  4558  1
 6491  4311  4312  1
 6492  4312  4395  1
 6493  4312  4313  1
 6494  4313  4314  1
 6495  4313  4560  1
 6496  4314  4397  1
 6497  4314  4315  1
 6498  4315  4316  1
 6499  4315  4562  1
 6500  4316  4399  1
 6501  4316  4317  1
 6502  4317  4318  1
 6503  4317  4564  1
 6504  4318  4401  1
 6505  4318  4319  1
 6506  4319  4320  1
 6507  4319  4566  1
 6508  4320  4403  1
 6509  4320  4321  1
 6510  4321  4322  1
 6511  4321  4568  1
 6512  4322  4405  1
 6513  4322  4323  1
 6514  4323  4324  1
 6515  4323  4570  1
 6516  4324  4407  1
 6517  4324  4325  1
 6518  4325  4326  1
 6519  4325  4572  1
 6520  4326  4409  1
 6521  4326  4327  1
 6522  4327  4328  1
 6523  4327  4574  1
 6524  4328  4411  1
 6525  4328  4329  1
 6526  4329  4330  1
 6527  4329  4576  1
 6528  4330  4413  1
 6529  4330  4331  1
 6530  4331  4332  1
 6531  4331  4578  1
 6532  4332  4415  1
 6533  4332  4333  1
 6534  4333  4334  1
 6535  4333  4580  1
 6536  4334  4417  1
 6537  4334  4335  1
 6538  4335  4336  1
 6539  4335  4582  1
 6540  4336  4419  1
 6541  4336  4337  1
 6542  4337  4584  1
 6543  4337  4338  1
 6544  4338  4421  1
 6545  4338  4339  1
 6546  4339  4340  1
 6547  4339  4586  1
 6548  4340  4423  1
 6549  4340  4341  1
 6550  4341  4342  1
 6551  4341  4588  1
 6552  4342  4425  1
 6553  4342  4343  1
 6554  4343  4344  1
 6555  4343  4590  1
 6556  4344  4427  1
 6557  4344  4345  1
 6558  4345  4346  1
 6559  4345  4592  1
 6560  4346  4347  1
 6561  4347  4428  1
 6562  4347  4348  1
 6563  4348  4349  1
 6564  4349  4350  1
 6565  4350  4351  1
 6566  4351  4352  1
 6567  4352  4353  1
 6568  4353  4354  1
 6569  4354  4355  1
 6570  4355  4356  1
 6571  4356  4357  1
 6572  4357  4358  1
 6573  4358  4359  1
 6574  4359  4360  1
 6575  4360  4361  1
 6576  4361  4362  1
 6577  4362  4363  1
 6578  4363  4364  1
 6579  4364  4365  1
 6580  4365  4366  1
 6581  4366  4367  1
 6582  4367  4368  1
 6583  4368  4369  1
 6584  4369  4370  1
 6585  4370  4371  1
 6586  4371  4372  1
 6587  4372  4373  1
 6588  4373  4374  1
 6589  4374  4375  1
 6590  4375  4376  1
 6591  4376  4377  1
 6592  4377  4378  1
 6593  4378  4379  1
 6594  4379  4380  1
 6595  4380  4381  1
 6596  4381  4382  1
 6597  4382  4383  1
 6598  4383  4384  1
 6599  4384  4385  1
 6600  4385  4386  1
 6601  4386  4387  1
 6602  4387  4388  1
 6603  4388  4389  1
 6604  4389  4390  1
 6605  4390  4391  1
 6606  4391  4392  1
 6607  4392  4393  1
 6608  4393  4394  1
 6609  4394  4395  1
 6610  4395  4396  1
 6611  4396  4397  1
 6612  4397  4398  1
 6613  4398  4399  1
 6614  4399  4400  1
 6615  4400  4401  1
 6616  4401  4402  1
 6617  4402  4403  1
 6618  4403  4404  1
 6619  4404  4405  1
 6620  4405  4406  1
 6621  4406  4407  1
 6622  4407  4408  1
 6623  4408  4409  1
 6624  4409  4410  1
 6625  4410  4411  1
 6626  4411  4412  1
 6627  4412  4413  1
 6628  4413  4414  1
 6629  4414  4415  1
 6630  4415  4416  1
 6631  4416  4417  1
 6632  4417  4418  1
 6633  4418  4419  1
 6634  4419  4420  1
 6635  4420  4421  1
 6636  4421  4422  1
 6637  4422  4423  1
 6638  4423  4424  1
 6639  4424  4425  1
 6640  4425  4426  1
 6641  4426  4427  1
 6642  4427  4428  1
 6643  4429  4510  1
 6644  4429  4430  1
 6645  4429  4676  1
 6646  4430  4513  1
 6647  4430  4431  1
 6648  4431  4432  1
 6649  4431  4678  1
 6650  4432  4515  1
 6651  4432  4433  1
 6652  4433  4680  1
 6653  4433  4434  1
 6654  4434  4517  1
 6655  4434  4435  1
 6656  4435  4436  1
 6657  4435  4682  1
 6658  4436  4519  1
 6659  4436  4437  1
 6660  4437  4438  1
 6661  4437  4684  1
 6662  4438  4521  1
 6663  4438  4439  1
 6664  4439  4686  1
 6665  4439  4440  1
 6666  4440  4523  1
 6667  4440  4441  1
 6668  4441  4688  1
 6669  4441  4442  1
 6670  4442  4525  1
 6671  4442  4443  1
 6672  4443  4690  1
 6673  4443  4444  1
 6674  4444  4527  1
 6675  4444  4445  1
 6676  4445  4446  1
 6677  4445  4692  1
 6678  4446  4529  1
 6679  4446  4447  1
 6680  4447  4448  1
 6681  4447  4694  1
 6682  4448  4449  1
 6683  4448  4531  1
 6684  4449  4696  1
 6685  4449  4450  1
 6686  4450  4533  1
 6687  4450  4451  1
 6688  4451  4698  1
 6689  4451  4452  1
 6690  4452  4535  1
 6691  4452  4453  1
 6692  4453  4700  1
 6693  4453  4454  1
 6694  4454  4537  1
 6695  4454  4455  1
 6696  4455  4702  1
 6697  4455  4456  1
 6698  4456  4539  1
 6699  4456  4457  1
 6700  4457  4704  1
 6701  4457  4458  1
 6702  4458  4541  1
 6703  4458  4459  1
 6704  4459  4706  1
 6705  4459  4460  1
 6706  4460  4543  1
 6707  4460  4461  1
 6708  4461  4462  1
 6709  4461  4708  1
 6710  4462  4545  1
 6711  4462  4463  1
 6712  4463  4464  1
 6713  4463  4710  1
 6714  4464  4547  1
 6715  4464  4465  1
 6716  4465  4466  1
 6717  4465  4712  1
 6718  4466  4549  1
 6719  4466  4467  1
 6720  4467  4468  1
 6721  4467  4714  1
 6722  4468  4551  1
 6723  4468  4469  1
 6724  4469  4470  1
 6725  4469  4716  1
 6726  4470  4553  1
 6727  4470  4471  1
 6728  4471  4472  1
 6729  4471  4718  1
 6730  4472  4555  1
 6731  4472  4473  1
 6732  4473  4474  1
 6733  4473  4720  1
 6734  4474  4557  1
 6735  4474  4475  1
 6736  4475  4722  1
 6737  4475  4476  1
 6738  4476  4559  1
 6739  4476  4477  1
 6740  4477  4478  1
 6741  4477  4724  1
 6742  4478  4561  1
 6743  4478  4479  1
 6744  4479  4480  1
 6745  4479  4726  1
 6746  4480  4563  1
 6747  4480  4481  1
 6748  4481  4482  1
 6749  4481  4728  1
 6750  4482  4565  1
 6751  4482  4483  1
 6752  4483  4484  1
 6753  4483  4730  1
 6754  4484  4567  1
 6755  4484  4485  1
 6756  4485  4486  1
 6757  4485  4732  1
 6758  4486  4569  1
 6759  4486  4487  1
 6760  4487  4488  1
 6761  4487  4734  1
 6762  4488  4571  1
 6763  4488  4489  1
 6764  4489  4490  1
 6765  4489  4736  1
 6766  4490  4573  1
 6767  4490  4491  1
 6768  4491  4492  1
 6769  4491  4738  1
 6770  4492  4575  1
 6771  4492  4493  1
 6772  4493  4494  1
 6773  4493  4740  1
 6774  4494  4577  1
 6775  4494  4495  1
 6776  4495  4496  1
 6777  4495  4742  1
 6778  4496  4579  1
 6779  4496  4497  1
 6780  4497  4498  1
 6781  4497  4744  1
 6782  4498  4581  1
 6783  4498  4499  1
 6784  4499  4500  1
 6785  4499  4746  1
 6786  4500  4583  1
 6787  4500  4501  1
 6788  4501  4748  1
 6789  4501  4502  1
 6790  4502  4585  1
 6791  4502  4503  1
 6792  4503  4504  1
 6793  4503  4750  1
 6794  4504  4587  1
 6795  4504  4505  1
 6796  4505  4506  1
 6797  4505  4752  1
 6798  4506  4589  1
 6799  4506  4507  1
 6800  4507  4508  1
 6801  4507  4754  1
 6802  4508  4591  1
 6803  4508  4509  1
 6804  4509  4510  1
 6805  4509  4756  1
 6806  4510  4511  1
 6807  4511  4592  1
 6808  4511  4512  1
 6809  4512  4513  1
 6810  4513  4514  1
 6811  4514  4515  1
 6812  4515  4516  1
 6813  4516  4517  1
 6814  4517  4518  1
 6815  4518  4519  1
 6816  4519  4520  1
 6817  4520  4521  1
 6818  4521  4522  1
 6819  4522  4523  1
 6820  4523  4524  1
 6821  4524  4525  1
 6822  4525  4526  1
 6823  4526  4527  1
 6824  4527  4528  1
 6825  4528  4529  1
 6826  4529  4530  1
 6827  4530  4531  1
 6828  4531  4532  1
 6829  4532  4533  1
 6830  4533  4534  1
 6831  4534  4535  1
 6832  4535  4536  1
 6833  4536  4537  1
 6834  4537  4538  1
 6835  4538  4539  1
 6836  4539  4540  1
 6837  4540  4541  1
 6838  4541  4542  1
 6839  4542  4543  1
 6840  4543  4544  1
 6841  4544  4545  1
 6842  4545  4546  1
 6843  4546  4547  1
 6844  4547  4548  1
 6845  4548  4549  1
 6846  4549  4550  1
 6847  4550  4551  1
 6848  4551  4552  1
 6849  4552  4553  1
 6850  4553  4554  1
 6851  4554  4555  1
 6852  4555  4556  1
 6853  4556  4557  1
 6854  4557  4558  1
 6855  4558  4559  1
 6856  4559  4560  1
 6857  4560  4561  1
 6858  4561  4562  1
 6859  4562  4563  1
 6860  4563  4564  1
 6861  4564  4565  1
 6862  4565  4566  1
 6863  4566  4567  1
 6864  4567  4568  1
 6865  4568  4569  1
 6866  4569  4570  1
 6867  4570  4571  1
 6868  4571  4572  1
 6869  4572  4573  1
 6870  4573  4574  1
 6871  4574  4575  1
 6872  4575  4576  1
 6873  4576  4577  1
 6874  4577  4578  1
 6875  4578  4579  1
 6876  4579  4580  1
 6877  4580  4581  1
 6878  4581  4582  1
 6879  4582  4583  1
 6880  4583  4584  1
 6881  4584  4585  1
 6882  4585  4586  1
 6883  4586  4587  1
 6884  4587  4588  1
 6885  4588  4589  1
 6886  4589  4590  1
 6887  4590  4591  1
 6888  4591  4592  1
 6889  4593  4674  1
 6890  4593  4594  1
 6891  4594  4677  1
 6892  4594  4595  1
 6893  4595  4596  1
 6894  4596  4679  1
 6895  4596  4597  1
 6896  4597  4598  1
 6897  4598  4681  1
 6898  4598  4599  1
 6899  4599  4600  1
 6900  4600  4683  1
 6901  4600  4601  1
 6902  4601  4602  1
 6903  4602  4685  1
 6904  4602  4603  1
 6905  4603  4604  1
 6906  4604  4687  1
 6907  4604  4605  1
 6908  4605  4606  1
 6909  4606  4689  1
 6910  4606  4607  1
 6911  4607  4608  1
 6912  4608  4691  1
 6913  4608  4609  1
 6914  4609  4610  1
 6915  4610  4693  1
 6916  4610  4611  1
 6917  4611  4612  1
 6918  4612  4613  1
 6919  4612  4695  1
 6920  4613  4614  1
 6921  4614  4697  1
 6922  4614  4615  1
 6923  4615  4616  1
 6924  4616  4699  1
 6925  4616  4617  1
 6926  4617  4618  1
 6927  4618  4701  1
 6928  4618  4619  1
 6929  4619  4620  1
 6930  4620  4703  1
 6931  4620  4621  1
 6932  4621  4622  1
 6933  4622  4705  1
 6934  4622  4623  1
 6935  4623  4624  1
 6936  4624  4707  1
 6937  4624  4625  1
 6938  4625  4626  1
 6939  4626  4709  1
 6940  4626  4627  1
 6941  4627  4628  1
 6942  4628  4711  1
 6943  4628  4629  1
 6944  4629  4630  1
 6945  4630  4713  1
 6946  4630  4631  1
 6947  4631  4632  1
 6948  4632  4715  1
 6949  4632  4633  1
 6950  4633  4634  1
 6951  4634  4717  1
 6952  4634  4635  1
 6953  4635  4636  1
 6954  4636  4719  1
 6955  4636  4637  1
 6956  4637  4638  1
 6957  4638  4721  1
 6958  4638  4639  1
 6959  4639  4640  1
 6960  4640  4723  1
 6961  4640  4641  1
 6962  4641  4642  1
 6963  4642  4725  1
 6964  4642  4643  1
 6965  4643  4644  1
 6966  4644  4727  1
 6967  4644  4645  1
 6968  4645  4646  1
 6969  4646  4729  1
 6970  4646  4647  1
 6971  4647  4648  1
 6972  4648  4731  1
 6973  4648  4649  1
 6974  4649  4650  1
 6975  4650  4733  1
 6976  4650  4651  1
 6977  4651  4652  1
 6978  4652  4735  1
 6979  4652  4653  1
 6980  4653  4654  1
 6981  4654  4737  1
 6982  4654  4655  1
 6983  4655  4656  1
 6984  4656  4739  1
 6985  4656  4657  1
 6986  4657  4658  1
 6987  4658  4741  1
 6988  4658  4659  1
 6989  4659  4660  1
 6990  4660  4743  1
 6991  4660  4661  1
 6992  4661  4662  1
 6993  4662  4745  1
 6994  4662  4663  1
 6995  4663  4664  1
 6996  4664  4747  1
 6997  4664  4665  1
 6998  4665  4666  1
 6999  4666  4749  1
 7000  4666  4667  1
 7001  4667  4668  1
 7002  4668  4751  1
 7003  4668  4669  1
 7004  4669  4670  1
 7005  4670  4753  1
 7006  4670  4671  1
 7007  4671  4672  1
 7008  4672  4755  1
 7009  4672  4673  1
 7010  4673  4674  1
 7011  4674  4675  1
 7012  4675  4756  1
 7013  4675  4676  1
 7014  4676  4677  1
 7015  4677  4678  1
 7016  4678  4679  1
 7017  4679  4680  1
 7018  4680  4681  1
 7019  4681  4682  1
 7020  4682  4683  1
 7021  4683  4684  1
 7022  4684  4685  1
 7023  4685  4686  1
 7024  4686  4687  1
 7025  4687  4688  1
 7026  4688  4689  1
 7027  4689  4690  1
 7028  4690  4691  1
 7029  4691  4692  1
 7030  4692  4693  1
 7031  4693  4694  1
 7032  4694  4695  1
 7033  4695  4696  1
 7034  4696  4697  1
 7035  4697  4698  1
 7036  4698  4699  1
 7037  4699  4700  1
 7038  4700  4701  1
 7039  4701  4702  1
 7040  4702  4703  1
 7041  4703  4704  1
 7042  4704  4705  1
 7043  4705  4706  1
 7044  4706  4707  1
 7045  4707  4708  1
 7046  4708  4709  1
 7047  4709  4710  1
 7048  4710  4711  1
 7049  4711  4712  1
 7050  4712  4713  1
 7051  4713  4714  1
 7052  4714  4715  1
 7053  4715  4716  1
 7054  4716  4717  1
 7055  4717  4718  1
 7056  4718  4719  1
 7057  4719  4720  1
 7058  4720  4721  1
 7059  4721  4722  1
 7060  4722  4723  1
 7061  4723  4724  1
 7062  4724  4725  1
 7063  4725  4726  1
 7064  4726  4727  1
 7065  4727  4728  1
 7066  4728  4729  1
 7067  4729  4730  1
 7068  4730  4731  1
 7069  4731  4732  1
 7070  4732  4733  1
 7071  4733  4734  1
 7072  4734  4735  1
 7073  4735  4736  1
 7074  4736  4737  1
 7075  4737  4738  1
 7076  4738  4739  1
 7077  4739  4740  1
 7078  4740  4741  1
 7079  4741  4742  1
 7080  4742  4743  1
 7081  4743  4744  1
 7082  4744  4745  1
 7083  4745  4746  1
 7084  4746  4747  1
 7085  4747  4748  1
 7086  4748  4749  1
 7087  4749  4750  1
 7088  4750  4751  1
 7089  4751  4752  1
 7090  4752  4753  1
 7091  4753  4754  1
 7092  4754  4755  1
 7093  4755  4756  1

@<TRIPOS>SUBSTRUCTURE
1 tzig        1 TEMP                        0 ****  **** 0 ROOT
